/*---------------------------------------------------------------------------*\
| =========                 |                                                 |
| \\      /  F ield         | OpenFOAM: The Open Source CFD Toolbox           |
|  \\    /   O peration     | Version:  2506                                  |
|   \\  /    A nd           | Website:  www.openfoam.com                      |
|    \\/     M anipulation  |                                                 |
\*---------------------------------------------------------------------------*/
Build  : _615aae61-20250627 OPENFOAM=2506 version=2506
Arch   : "LSB;label=32;scalar=64"
Exec   : decomposePar -force
Date   : Jan 24 2026
Time   : 20:58:07
Host   : Vortex-Eclipse
PID    : 338230
I/O    : uncollated
Case   : /home/reen/openfoam/Tutorials/Rotating_Setup_Case/OpenFOAM_GUI/WindTunnelGUI/runs/Run_1_20260124_205802/windTunnelCase
nProcs : 1
trapFpe: Floating point exception trapping enabled (FOAM_SIGFPE).
fileModificationChecking : Monitoring run-time modified files using timeStampMaster (fileModificationSkew 5, maxFileModificationPolls 20)
allowSystemOperations : Allowing user-supplied system call operations

// * * * * * * * * * * * * * * * * * * * * * * * * * * * * * * * * * * * * * //
Create time



Decomposing mesh

Create mesh

Calculating distribution of cells
Decomposition method scotch [12] (region region0)

Finished decomposition in 0.12 s

Calculating original mesh data

Distributing cells to processors

Distributing faces to processors

Distributing points to processors

Constructing processor meshes

Processor 0
    Number of cells = 3919
    Number of points = 994
    Number of faces shared with processor 1 = 151
    Number of processor patches = 1
    Number of processor faces = 151
    Number of boundary faces = 1045

Processor 1
    Number of cells = 3946
    Number of points = 1039
    Number of faces shared with processor 0 = 151
    Number of faces shared with processor 2 = 103
    Number of faces shared with processor 3 = 15
    Number of faces shared with processor 4 = 43
    Number of faces shared with processor 5 = 57
    Number of faces shared with processor 7 = 6
    Number of faces shared with processor 8 = 109
    Number of faces shared with processor 10 = 67
    Number of processor patches = 8
    Number of processor faces = 551
    Number of boundary faces = 759

Processor 2
    Number of cells = 3948
    Number of points = 835
    Number of faces shared with processor 1 = 103
    Number of faces shared with processor 3 = 93
    Number of faces shared with processor 4 = 118
    Number of faces shared with processor 5 = 94
    Number of faces shared with processor 7 = 6
    Number of faces shared with processor 8 = 2
    Number of processor patches = 6
    Number of processor faces = 416
    Number of boundary faces = 164

Processor 3
    Number of cells = 3927
    Number of points = 944
    Number of faces shared with processor 1 = 15
    Number of faces shared with processor 2 = 93
    Number of faces shared with processor 4 = 176
    Number of faces shared with processor 5 = 57
    Number of faces shared with processor 6 = 51
    Number of faces shared with processor 7 = 153
    Number of faces shared with processor 8 = 3
    Number of processor patches = 7
    Number of processor faces = 548
    Number of boundary faces = 418

Processor 4
    Number of cells = 3972
    Number of points = 912
    Number of faces shared with processor 1 = 43
    Number of faces shared with processor 2 = 118
    Number of faces shared with processor 3 = 176
    Number of faces shared with processor 5 = 222
    Number of faces shared with processor 6 = 32
    Number of faces shared with processor 7 = 6
    Number of processor patches = 6
    Number of processor faces = 597
    Number of boundary faces = 259

Processor 5
    Number of cells = 3991
    Number of points = 862
    Number of faces shared with processor 1 = 57
    Number of faces shared with processor 2 = 94
    Number of faces shared with processor 3 = 57
    Number of faces shared with processor 4 = 222
    Number of faces shared with processor 7 = 6
    Number of faces shared with processor 8 = 4
    Number of processor patches = 6
    Number of processor faces = 440
    Number of boundary faces = 222

Processor 6
    Number of cells = 3989
    Number of points = 1006
    Number of faces shared with processor 3 = 51
    Number of faces shared with processor 4 = 32
    Number of faces shared with processor 7 = 87
    Number of faces shared with processor 8 = 92
    Number of faces shared with processor 9 = 131
    Number of faces shared with processor 11 = 128
    Number of processor patches = 6
    Number of processor faces = 521
    Number of boundary faces = 653

Processor 7
    Number of cells = 3926
    Number of points = 872
    Number of faces shared with processor 1 = 6
    Number of faces shared with processor 2 = 6
    Number of faces shared with processor 3 = 153
    Number of faces shared with processor 4 = 6
    Number of faces shared with processor 5 = 6
    Number of faces shared with processor 6 = 87
    Number of faces shared with processor 8 = 195
    Number of processor patches = 7
    Number of processor faces = 459
    Number of boundary faces = 269

Processor 8
    Number of cells = 3918
    Number of points = 947
    Number of faces shared with processor 1 = 109
    Number of faces shared with processor 2 = 2
    Number of faces shared with processor 3 = 3
    Number of faces shared with processor 5 = 4
    Number of faces shared with processor 6 = 92
    Number of faces shared with processor 7 = 195
    Number of faces shared with processor 9 = 43
    Number of faces shared with processor 10 = 100
    Number of faces shared with processor 11 = 46
    Number of processor patches = 9
    Number of processor faces = 594
    Number of boundary faces = 436

Processor 9
    Number of cells = 3991
    Number of points = 849
    Number of faces shared with processor 6 = 131
    Number of faces shared with processor 8 = 43
    Number of faces shared with processor 10 = 120
    Number of faces shared with processor 11 = 138
    Number of processor patches = 4
    Number of processor faces = 432
    Number of boundary faces = 166

Processor 10
    Number of cells = 3923
    Number of points = 904
    Number of faces shared with processor 1 = 67
    Number of faces shared with processor 8 = 100
    Number of faces shared with processor 9 = 120
    Number of faces shared with processor 11 = 265
    Number of processor patches = 4
    Number of processor faces = 552
    Number of boundary faces = 288

Processor 11
    Number of cells = 3975
    Number of points = 900
    Number of faces shared with processor 6 = 128
    Number of faces shared with processor 8 = 46
    Number of faces shared with processor 9 = 138
    Number of faces shared with processor 10 = 265
    Number of processor patches = 4
    Number of processor faces = 577
    Number of boundary faces = 219

Number of processor faces = 2919
Max number of cells = 3991 (0.984713% above average 3952.08)
Max number of processor patches = 9 (58.8235% above average 5.66667)
Max number of faces between processors = 597 (22.7133% above average 486.5)

Time = 0

Processor 0: field transfer
Processor 1: field transfer
Processor 2: field transfer
Processor 3: field transfer
Processor 4: field transfer
Processor 5: field transfer
Processor 6: field transfer
Processor 7: field transfer
Processor 8: field transfer
Processor 9: field transfer
Processor 10: field transfer
Processor 11: field transfer

End

