[WORKFLOW] Applying settings...
[SETTINGS] Updated controlDict: solver=pimpleFoam, endTime=0.1
[SETTINGS] Updated transportProperties: nu=1.5e-05
[SETTINGS] Updated turbulenceProperties: model=kOmegaSST
[WORKFLOW] Starting solver...
[SOLVER] Decomposing for parallel run...
[DECOMPOSE] Running: decomposePar -force
/*---------------------------------------------------------------------------*\
| =========                 |                                                 |
| \\      /  F ield         | OpenFOAM: The Open Source CFD Toolbox           |
|  \\    /   O peration     | Version:  2506                                  |
|   \\  /    A nd           | Website:  www.openfoam.com                      |
|    \\/     M anipulation  |                                                 |
\*---------------------------------------------------------------------------*/
Build  : _615aae61-20250627 OPENFOAM=2506 version=2506
Arch   : "LSB;label=32;scalar=64"
Exec   : decomposePar -force
Date   : Jan 23 2026
Time   : 11:58:38
Host   : Vortex-Eclipse
PID    : 145429
I/O    : uncollated
Case   : /home/reen/openfoam/Tutorials/Rotating_Setup_Case/OpenFOAM_GUI/WindTunnelGUI/runs/Run_2_20260123_115820/windTunnelCase
nProcs : 1
trapFpe: Floating point exception trapping enabled (FOAM_SIGFPE).
fileModificationChecking : Monitoring run-time modified files using timeStampMaster (fileModificationSkew 5, maxFileModificationPolls 20)
allowSystemOperations : Allowing user-supplied system call operations

// * * * * * * * * * * * * * * * * * * * * * * * * * * * * * * * * * * * * * //
Create time



Decomposing mesh

Create mesh

Calculating distribution of cells
Decomposition method scotch [12] (region region0)

Finished decomposition in 0.13 s

Calculating original mesh data

Distributing cells to processors

Distributing faces to processors

Distributing points to processors

Constructing processor meshes

Processor 0
    Number of cells = 3954
    Number of points = 896
    Number of faces shared with processor 1 = 105
    Number of faces shared with processor 2 = 144
    Number of faces shared with processor 3 = 126
    Number of faces shared with processor 4 = 4
    Number of faces shared with processor 10 = 124
    Number of faces shared with processor 11 = 21
    Number of processor patches = 6
    Number of processor faces = 524
    Number of boundary faces = 296

Processor 1
    Number of cells = 3946
    Number of points = 853
    Number of faces shared with processor 0 = 105
    Number of faces shared with processor 2 = 145
    Number of faces shared with processor 3 = 149
    Number of faces shared with processor 4 = 61
    Number of faces shared with processor 10 = 6
    Number of faces shared with processor 11 = 36
    Number of processor patches = 6
    Number of processor faces = 502
    Number of boundary faces = 150

Processor 2
    Number of cells = 3977
    Number of points = 885
    Number of faces shared with processor 0 = 144
    Number of faces shared with processor 1 = 145
    Number of faces shared with processor 3 = 53
    Number of faces shared with processor 4 = 120
    Number of faces shared with processor 11 = 34
    Number of processor patches = 5
    Number of processor faces = 496
    Number of boundary faces = 246

Processor 3
    Number of cells = 3915
    Number of points = 953
    Number of faces shared with processor 0 = 126
    Number of faces shared with processor 1 = 149
    Number of faces shared with processor 2 = 53
    Number of faces shared with processor 4 = 68
    Number of faces shared with processor 9 = 68
    Number of faces shared with processor 10 = 32
    Number of faces shared with processor 11 = 1
    Number of processor patches = 7
    Number of processor faces = 497
    Number of boundary faces = 531

Processor 4
    Number of cells = 3934
    Number of points = 993
    Number of faces shared with processor 0 = 4
    Number of faces shared with processor 1 = 61
    Number of faces shared with processor 2 = 120
    Number of faces shared with processor 3 = 68
    Number of faces shared with processor 5 = 133
    Number of faces shared with processor 7 = 30
    Number of faces shared with processor 11 = 77
    Number of processor patches = 7
    Number of processor faces = 493
    Number of boundary faces = 681

Processor 5
    Number of cells = 3931
    Number of points = 993
    Number of faces shared with processor 4 = 133
    Number of faces shared with processor 7 = 25
    Number of processor patches = 2
    Number of processor faces = 158
    Number of boundary faces = 1022

Processor 6
    Number of cells = 3958
    Number of points = 833
    Number of faces shared with processor 7 = 102
    Number of faces shared with processor 8 = 151
    Number of faces shared with processor 9 = 106
    Number of faces shared with processor 11 = 45
    Number of processor patches = 4
    Number of processor faces = 404
    Number of boundary faces = 176

Processor 7
    Number of cells = 3959
    Number of points = 890
    Number of faces shared with processor 4 = 30
    Number of faces shared with processor 5 = 25
    Number of faces shared with processor 6 = 102
    Number of faces shared with processor 8 = 256
    Number of faces shared with processor 11 = 98
    Number of processor patches = 5
    Number of processor faces = 511
    Number of boundary faces = 265

Processor 8
    Number of cells = 3952
    Number of points = 902
    Number of faces shared with processor 6 = 151
    Number of faces shared with processor 7 = 256
    Number of faces shared with processor 9 = 158
    Number of faces shared with processor 11 = 47
    Number of processor patches = 4
    Number of processor faces = 612
    Number of boundary faces = 214

Processor 9
    Number of cells = 3950
    Number of points = 979
    Number of faces shared with processor 3 = 68
    Number of faces shared with processor 6 = 106
    Number of faces shared with processor 8 = 158
    Number of faces shared with processor 10 = 84
    Number of faces shared with processor 11 = 115
    Number of processor patches = 5
    Number of processor faces = 531
    Number of boundary faces = 575

Processor 10
    Number of cells = 3972
    Number of points = 865
    Number of faces shared with processor 0 = 124
    Number of faces shared with processor 1 = 6
    Number of faces shared with processor 3 = 32
    Number of faces shared with processor 9 = 84
    Number of faces shared with processor 11 = 168
    Number of processor patches = 5
    Number of processor faces = 414
    Number of boundary faces = 266

Processor 11
    Number of cells = 3977
    Number of points = 988
    Number of faces shared with processor 0 = 21
    Number of faces shared with processor 1 = 36
    Number of faces shared with processor 2 = 34
    Number of faces shared with processor 3 = 1
    Number of faces shared with processor 4 = 77
    Number of faces shared with processor 6 = 45
    Number of faces shared with processor 7 = 98
    Number of faces shared with processor 8 = 47
    Number of faces shared with processor 9 = 115
    Number of faces shared with processor 10 = 168
    Number of processor patches = 10
    Number of processor faces = 642
    Number of boundary faces = 476

Number of processor faces = 2892
Max number of cells = 3977 (0.630469% above average 3952.08)
Max number of processor patches = 10 (81.8182% above average 5.5)
Max number of faces between processors = 642 (33.195% above average 482)

Time = 0

Processor 0: field transfer
Processor 1: field transfer
Processor 2: field transfer
Processor 3: field transfer
Processor 4: field transfer
Processor 5: field transfer
Processor 6: field transfer
Processor 7: field transfer
Processor 8: field transfer
Processor 9: field transfer
Processor 10: field transfer
Processor 11: field transfer

End

[DECOMPOSE] completed (exit code: 0)
[SOLVER] Running pimpleFoam...
[SOLVER] Running: mpirun -np 12 pimpleFoam -parallel
/*---------------------------------------------------------------------------*\
| =========                 |                                                 |
| \\      /  F ield         | OpenFOAM: The Open Source CFD Toolbox           |
|  \\    /   O peration     | Version:  2506                                  |
|   \\  /    A nd           | Website:  www.openfoam.com                      |
|    \\/     M anipulation  |                                                 |
\*---------------------------------------------------------------------------*/
Build  : _615aae61-20250627 OPENFOAM=2506 version=2506
Arch   : "LSB;label=32;scalar=64"
Exec   : pimpleFoam -parallel
Date   : Jan 23 2026
Time   : 11:58:37
Host   : Vortex-Eclipse
PID    : 146912
I/O    : uncollated
Case   : /home/reen/openfoam/Tutorials/Rotating_Setup_Case/OpenFOAM_GUI/WindTunnelGUI/runs/Run_2_20260123_115820/windTunnelCase
nProcs : 12
Hosts  :
(
    (Vortex-Eclipse 12)
)
Pstream initialized with:
    node communication : off [type=host] (12 ranks, 1 nodes)
    topology controls  : none
    consensus exchange : 0 (tuning: 0)
    exchange algorithm : 0
    commsType          : nonBlocking
    polling iterations : 0
trapFpe: Floating point exception trapping enabled (FOAM_SIGFPE).
fileModificationChecking : Monitoring run-time modified files using timeStampMaster (fileModificationSkew 5, maxFileModificationPolls 20)
allowSystemOperations : Allowing user-supplied system call operations

// * * * * * * * * * * * * * * * * * * * * * * * * * * * * * * * * * * * * * //
Create time

Create mesh for time = 0


PIMPLE: no residual control data found. Calculations will employ 2 corrector loops

Reading field p

Reading field U

Reading/calculating face flux field phi

Selecting incompressible transport model Newtonian
Selecting turbulence model type RAS
Selecting RAS turbulence model kOmegaSST
Selecting patchDistMethod meshWave
RAS
{
    RASModel        kOmegaSST;
    turbulence      on;
    printCoeffs     on;
    alphaK1         0.85;
    alphaK2         1;
    alphaOmega1     0.5;
    alphaOmega2     0.856;
    gamma1          0.555556;
    gamma2          0.44;
    beta1           0.075;
    beta2           0.0828;
    betaStar        0.09;
    a1              0.31;
    b1              1;
    c1              10;
    F3              false;
    decayControl    false;
    kInf            0;
    omegaInf        0;
}

No MRF models present

No finite volume options present
Courant Number mean: 1.30588e-05 max: 0.00273856
Courant Number mean: 1.30588e-05 max: 0.00273856

Starting time loop

Courant Number mean: 1.30588e-05 max: 0.00273856
deltaT = 1.2e-05
Time = 1.2e-05

PIMPLE: iteration 1
smoothSolver:  Solving for Ux, Initial residual = 1, Final residual = 1.84539e-10, No Iterations 1
smoothSolver:  Solving for Uy, Initial residual = 0, Final residual = 0, No Iterations 0
smoothSolver:  Solving for Uz, Initial residual = 0, Final residual = 0, No Iterations 0
GAMG:  Solving for p, Initial residual = 1, Final residual = 0.058015, No Iterations 6
GAMG:  Solving for p, Initial residual = 0.152076, Final residual = 0.00634604, No Iterations 1
time step continuity errors : sum local = 4.37643e-05, global = -8.4958e-08, cumulative = -8.4958e-08
GAMG:  Solving for p, Initial residual = 0.975733, Final residual = 0.056585, No Iterations 6
GAMG:  Solving for p, Initial residual = 0.152061, Final residual = 9.47776e-07, No Iterations 10
time step continuity errors : sum local = 6.53618e-09, global = 3.52719e-10, cumulative = -8.46053e-08
PIMPLE: iteration 2
smoothSolver:  Solving for Ux, Initial residual = 0.999982, Final residual = 7.68025e-08, No Iterations 2
smoothSolver:  Solving for Uy, Initial residual = 0.999799, Final residual = 7.98007e-08, No Iterations 2
smoothSolver:  Solving for Uz, Initial residual = 0.999799, Final residual = 9.04826e-08, No Iterations 2
GAMG:  Solving for p, Initial residual = 0.0154606, Final residual = 0.000777874, No Iterations 1
GAMG:  Solving for p, Initial residual = 0.00231105, Final residual = 0.000211848, No Iterations 1
time step continuity errors : sum local = 1.64471e-06, global = -1.39666e-07, cumulative = -2.24271e-07
GAMG:  Solving for p, Initial residual = 0.000814828, Final residual = 4.85339e-05, No Iterations 2
GAMG:  Solving for p, Initial residual = 0.000606906, Final residual = 9.73732e-07, No Iterations 5
time step continuity errors : sum local = 7.62775e-09, global = -5.09121e-10, cumulative = -2.2478e-07
smoothSolver:  Solving for omega, Initial residual = 0.00104026, Final residual = 2.52383e-07, No Iterations 1
smoothSolver:  Solving for k, Initial residual = 1, Final residual = 8.34554e-08, No Iterations 2
ExecutionTime = 0.06 s  ClockTime = 0 s

Courant Number mean: 0.00363185 max: 0.176677
deltaT = 1.44e-05
Time = 2.64e-05

PIMPLE: iteration 1
smoothSolver:  Solving for Ux, Initial residual = 0.000387736, Final residual = 5.90231e-12, No Iterations 1
smoothSolver:  Solving for Uy, Initial residual = 5.97364e-05, Final residual = 8.48936e-13, No Iterations 1
smoothSolver:  Solving for Uz, Initial residual = 5.93044e-05, Final residual = 8.99801e-13, No Iterations 1
GAMG:  Solving for p, Initial residual = 0.99879, Final residual = 0.0500265, No Iterations 1
GAMG:  Solving for p, Initial residual = 0.0636104, Final residual = 0.00378021, No Iterations 2
time step continuity errors : sum local = 4.96547e-06, global = 3.87835e-07, cumulative = 1.63055e-07
GAMG:  Solving for p, Initial residual = 0.998689, Final residual = 0.0500217, No Iterations 1
GAMG:  Solving for p, Initial residual = 0.0636028, Final residual = 5.67253e-07, No Iterations 12
time step continuity errors : sum local = 7.45129e-10, global = 4.52618e-11, cumulative = 1.63101e-07
PIMPLE: iteration 2
smoothSolver:  Solving for Ux, Initial residual = 0.861386, Final residual = 4.41466e-08, No Iterations 2
smoothSolver:  Solving for Uy, Initial residual = 0.350299, Final residual = 1.72808e-08, No Iterations 2
smoothSolver:  Solving for Uz, Initial residual = 0.34761, Final residual = 1.9765e-08, No Iterations 2
GAMG:  Solving for p, Initial residual = 0.0411039, Final residual = 0.00323298, No Iterations 3
GAMG:  Solving for p, Initial residual = 0.612755, Final residual = 0.025729, No Iterations 1
time step continuity errors : sum local = 5.64387e-05, global = 2.63205e-06, cumulative = 2.79515e-06
GAMG:  Solving for p, Initial residual = 0.162379, Final residual = 0.014983, No Iterations 1
GAMG:  Solving for p, Initial residual = 0.0770589, Final residual = 6.14947e-07, No Iterations 12
time step continuity errors : sum local = 4.15927e-10, global = 2.47231e-11, cumulative = 2.79518e-06
smoothSolver:  Solving for omega, Initial residual = 0.00112849, Final residual = 3.18156e-07, No Iterations 1
smoothSolver:  Solving for k, Initial residual = 0.366875, Final residual = 2.98954e-08, No Iterations 2
ExecutionTime = 0.09 s  ClockTime = 0 s

Courant Number mean: 0.00438608 max: 0.207596
deltaT = 1.728e-05
Time = 4.368e-05

PIMPLE: iteration 1
smoothSolver:  Solving for Ux, Initial residual = 9.4872e-06, Final residual = 1.78555e-13, No Iterations 1
smoothSolver:  Solving for Uy, Initial residual = 7.62545e-06, Final residual = 1.2003e-13, No Iterations 1
smoothSolver:  Solving for Uz, Initial residual = 7.11326e-06, Final residual = 1.12204e-13, No Iterations 1
GAMG:  Solving for p, Initial residual = 0.999863, Final residual = 0.0471811, No Iterations 1
GAMG:  Solving for p, Initial residual = 0.0565714, Final residual = 0.00342506, No Iterations 2
time step continuity errors : sum local = 4.28903e-06, global = 3.29293e-07, cumulative = 3.12447e-06
GAMG:  Solving for p, Initial residual = 0.999639, Final residual = 0.0471707, No Iterations 1
GAMG:  Solving for p, Initial residual = 0.0565647, Final residual = 5.12795e-07, No Iterations 12
time step continuity errors : sum local = 6.42161e-10, global = 3.89536e-11, cumulative = 3.12451e-06
PIMPLE: iteration 2
smoothSolver:  Solving for Ux, Initial residual = 0.30159, Final residual = 2.66528e-08, No Iterations 2
smoothSolver:  Solving for Uy, Initial residual = 0.16588, Final residual = 1.22447e-08, No Iterations 2
smoothSolver:  Solving for Uz, Initial residual = 0.162035, Final residual = 1.22517e-08, No Iterations 2
GAMG:  Solving for p, Initial residual = 0.482617, Final residual = 0.0219459, No Iterations 1
GAMG:  Solving for p, Initial residual = 0.128385, Final residual = 0.00691604, No Iterations 2
time step continuity errors : sum local = 5.58287e-06, global = -4.37706e-07, cumulative = 2.68681e-06
GAMG:  Solving for p, Initial residual = 0.173917, Final residual = 0.00918045, No Iterations 1
GAMG:  Solving for p, Initial residual = 0.0250822, Final residual = 6.68617e-07, No Iterations 11
time step continuity errors : sum local = 2.40493e-10, global = -1.4124e-11, cumulative = 2.68679e-06
smoothSolver:  Solving for omega, Initial residual = 0.00128993, Final residual = 4.4522e-07, No Iterations 1
smoothSolver:  Solving for k, Initial residual = 0.265402, Final residual = 3.28329e-08, No Iterations 2
ExecutionTime = 0.13 s  ClockTime = 0 s

Courant Number mean: 0.00526041 max: 0.241676
deltaT = 2.0736e-05
Time = 6.4416e-05

PIMPLE: iteration 1
smoothSolver:  Solving for Ux, Initial residual = 3.87498e-06, Final residual = 9.32377e-14, No Iterations 1
smoothSolver:  Solving for Uy, Initial residual = 2.60901e-06, Final residual = 5.46145e-14, No Iterations 1
smoothSolver:  Solving for Uz, Initial residual = 2.50472e-06, Final residual = 5.12861e-14, No Iterations 1
GAMG:  Solving for p, Initial residual = 0.999941, Final residual = 0.045639, No Iterations 1
GAMG:  Solving for p, Initial residual = 0.0541598, Final residual = 0.00321135, No Iterations 2
time step continuity errors : sum local = 4.31263e-06, global = 3.32957e-07, cumulative = 3.01975e-06
GAMG:  Solving for p, Initial residual = 0.999713, Final residual = 0.0456288, No Iterations 1
GAMG:  Solving for p, Initial residual = 0.0541534, Final residual = 4.80705e-07, No Iterations 12
time step continuity errors : sum local = 6.45569e-10, global = 3.92644e-11, cumulative = 3.01979e-06
PIMPLE: iteration 2
smoothSolver:  Solving for Ux, Initial residual = 0.2256, Final residual = 2.95261e-08, No Iterations 2
smoothSolver:  Solving for Uy, Initial residual = 0.114203, Final residual = 1.24627e-08, No Iterations 2
smoothSolver:  Solving for Uz, Initial residual = 0.111745, Final residual = 1.25289e-08, No Iterations 2
GAMG:  Solving for p, Initial residual = 0.469864, Final residual = 0.0212749, No Iterations 1
GAMG:  Solving for p, Initial residual = 0.120518, Final residual = 0.00700136, No Iterations 2
time step continuity errors : sum local = 4.77686e-06, global = -3.70546e-07, cumulative = 2.64924e-06
GAMG:  Solving for p, Initial residual = 0.183473, Final residual = 0.00956564, No Iterations 1
GAMG:  Solving for p, Initial residual = 0.0259898, Final residual = 6.90515e-07, No Iterations 11
time step continuity errors : sum local = 2.04838e-10, global = -1.20266e-11, cumulative = 2.64923e-06
smoothSolver:  Solving for omega, Initial residual = 0.00148129, Final residual = 6.27047e-07, No Iterations 1
smoothSolver:  Solving for k, Initial residual = 0.192824, Final residual = 3.69062e-08, No Iterations 2
ExecutionTime = 0.16 s  ClockTime = 0 s

Courant Number mean: 0.00630956 max: 0.281195
deltaT = 2.44231e-05
Time = 8.88391e-05

PIMPLE: iteration 1
smoothSolver:  Solving for Ux, Initial residual = 2.55601e-06, Final residual = 7.58328e-14, No Iterations 1
smoothSolver:  Solving for Uy, Initial residual = 1.7669e-06, Final residual = 4.63812e-14, No Iterations 1
smoothSolver:  Solving for Uz, Initial residual = 1.72064e-06, Final residual = 4.45177e-14, No Iterations 1
GAMG:  Solving for p, Initial residual = 0.999956, Final residual = 0.0444712, No Iterations 1
GAMG:  Solving for p, Initial residual = 0.0524841, Final residual = 0.00304105, No Iterations 2
time step continuity errors : sum local = 4.40626e-06, global = 3.4158e-07, cumulative = 2.99081e-06
GAMG:  Solving for p, Initial residual = 0.999729, Final residual = 0.0444613, No Iterations 1
GAMG:  Solving for p, Initial residual = 0.052478, Final residual = 4.54851e-07, No Iterations 12
time step continuity errors : sum local = 6.59058e-10, global = 4.01717e-11, cumulative = 2.99085e-06
PIMPLE: iteration 2
smoothSolver:  Solving for Ux, Initial residual = 0.188289, Final residual = 3.54415e-08, No Iterations 2
smoothSolver:  Solving for Uy, Initial residual = 0.0985292, Final residual = 1.54262e-08, No Iterations 2
smoothSolver:  Solving for Uz, Initial residual = 0.0960885, Final residual = 1.5337e-08, No Iterations 2
GAMG:  Solving for p, Initial residual = 0.492473, Final residual = 0.0218236, No Iterations 1
GAMG:  Solving for p, Initial residual = 0.126619, Final residual = 0.00720849, No Iterations 2
time step continuity errors : sum local = 4.7234e-06, global = -3.67292e-07, cumulative = 2.62356e-06
GAMG:  Solving for p, Initial residual = 0.194606, Final residual = 0.0101521, No Iterations 1
GAMG:  Solving for p, Initial residual = 0.0277035, Final residual = 7.33647e-07, No Iterations 11
time step continuity errors : sum local = 2.0055e-10, global = -1.1781e-11, cumulative = 2.62354e-06
smoothSolver:  Solving for omega, Initial residual = 0.00166978, Final residual = 8.50793e-07, No Iterations 1
smoothSolver:  Solving for k, Initial residual = 0.149433, Final residual = 4.29945e-08, No Iterations 2
ExecutionTime = 0.19 s  ClockTime = 0 s

Courant Number mean: 0.0074285 max: 0.321401
deltaT = 2.82226e-05
Time = 0.000117062

PIMPLE: iteration 1
smoothSolver:  Solving for Ux, Initial residual = 1.89994e-06, Final residual = 6.70966e-14, No Iterations 1
smoothSolver:  Solving for Uy, Initial residual = 1.43793e-06, Final residual = 4.51087e-14, No Iterations 1
smoothSolver:  Solving for Uz, Initial residual = 1.3996e-06, Final residual = 4.42082e-14, No Iterations 1
GAMG:  Solving for p, Initial residual = 0.999964, Final residual = 0.0435774, No Iterations 1
GAMG:  Solving for p, Initial residual = 0.0512252, Final residual = 0.00289901, No Iterations 2
time step continuity errors : sum local = 4.50602e-06, global = 3.50747e-07, cumulative = 2.97429e-06
GAMG:  Solving for p, Initial residual = 0.999738, Final residual = 0.0435677, No Iterations 1
GAMG:  Solving for p, Initial residual = 0.0512192, Final residual = 4.33246e-07, No Iterations 12
time step continuity errors : sum local = 6.73419e-10, global = 4.11353e-11, cumulative = 2.97433e-06
PIMPLE: iteration 2
smoothSolver:  Solving for Ux, Initial residual = 0.162432, Final residual = 4.20809e-08, No Iterations 2
smoothSolver:  Solving for Uy, Initial residual = 0.0886694, Final residual = 1.90164e-08, No Iterations 2
smoothSolver:  Solving for Uz, Initial residual = 0.0862504, Final residual = 1.88335e-08, No Iterations 2
GAMG:  Solving for p, Initial residual = 0.514111, Final residual = 0.0223663, No Iterations 1
GAMG:  Solving for p, Initial residual = 0.132677, Final residual = 0.00738846, No Iterations 2
time step continuity errors : sum local = 4.75631e-06, global = -3.70704e-07, cumulative = 2.60363e-06
GAMG:  Solving for p, Initial residual = 0.204407, Final residual = 0.0106683, No Iterations 1
GAMG:  Solving for p, Initial residual = 0.0292483, Final residual = 7.71679e-07, No Iterations 11
time step continuity errors : sum local = 2.00131e-10, global = -1.17643e-11, cumulative = 2.60362e-06
smoothSolver:  Solving for omega, Initial residual = 0.00184396, Final residual = 2.35585e-09, No Iterations 2
smoothSolver:  Solving for k, Initial residual = 0.120947, Final residual = 5.01222e-08, No Iterations 2
ExecutionTime = 0.23 s  ClockTime = 0 s

Courant Number mean: 0.00858102 max: 0.364865
deltaT = 3.20901e-05
Time = 0.000149152

PIMPLE: iteration 1
smoothSolver:  Solving for Ux, Initial residual = 1.54481e-06, Final residual = 6.33064e-14, No Iterations 1
smoothSolver:  Solving for Uy, Initial residual = 1.27022e-06, Final residual = 4.66606e-14, No Iterations 1
smoothSolver:  Solving for Uz, Initial residual = 1.23268e-06, Final residual = 4.61388e-14, No Iterations 1
GAMG:  Solving for p, Initial residual = 0.999969, Final residual = 0.0428728, No Iterations 1
GAMG:  Solving for p, Initial residual = 0.0502497, Final residual = 0.00277738, No Iterations 2
time step continuity errors : sum local = 4.59657e-06, global = 3.59191e-07, cumulative = 2.96281e-06
GAMG:  Solving for p, Initial residual = 0.999743, Final residual = 0.0428633, No Iterations 1
GAMG:  Solving for p, Initial residual = 0.0502438, Final residual = 9.95986e-07, No Iterations 11
time step continuity errors : sum local = 1.64839e-09, global = 9.27145e-11, cumulative = 2.9629e-06
PIMPLE: iteration 2
smoothSolver:  Solving for Ux, Initial residual = 0.143294, Final residual = 4.93452e-08, No Iterations 2
smoothSolver:  Solving for Uy, Initial residual = 0.0815816, Final residual = 2.31911e-08, No Iterations 2
smoothSolver:  Solving for Uz, Initial residual = 0.0791525, Final residual = 2.28633e-08, No Iterations 2
GAMG:  Solving for p, Initial residual = 0.533442, Final residual = 0.0228568, No Iterations 1
GAMG:  Solving for p, Initial residual = 0.138597, Final residual = 0.00754984, No Iterations 2
time step continuity errors : sum local = 4.80933e-06, global = -3.75377e-07, cumulative = 2.58752e-06
GAMG:  Solving for p, Initial residual = 0.213016, Final residual = 0.0111264, No Iterations 1
GAMG:  Solving for p, Initial residual = 0.0306443, Final residual = 8.05636e-07, No Iterations 11
time step continuity errors : sum local = 2.0056e-10, global = -1.17976e-11, cumulative = 2.58751e-06
smoothSolver:  Solving for omega, Initial residual = 0.00199894, Final residual = 3.3324e-09, No Iterations 2
smoothSolver:  Solving for k, Initial residual = 0.100765, Final residual = 5.83008e-08, No Iterations 2
ExecutionTime = 0.27 s  ClockTime = 0 s

Courant Number mean: 0.00975365 max: 0.407717
deltaT = 3.60255e-05
Time = 0.000185177

PIMPLE: iteration 1
smoothSolver:  Solving for Ux, Initial residual = 1.35993e-06, Final residual = 6.30951e-14, No Iterations 1
smoothSolver:  Solving for Uy, Initial residual = 1.18353e-06, Final residual = 4.98403e-14, No Iterations 1
smoothSolver:  Solving for Uz, Initial residual = 1.14484e-06, Final residual = 4.96954e-14, No Iterations 1
GAMG:  Solving for p, Initial residual = 0.999973, Final residual = 0.0423047, No Iterations 1
GAMG:  Solving for p, Initial residual = 0.0494782, Final residual = 0.00267266, No Iterations 2
time step continuity errors : sum local = 4.67837e-06, global = 3.66463e-07, cumulative = 2.95397e-06
GAMG:  Solving for p, Initial residual = 0.999748, Final residual = 0.0422954, No Iterations 1
GAMG:  Solving for p, Initial residual = 0.0494725, Final residual = 9.57668e-07, No Iterations 11
time step continuity errors : sum local = 1.67638e-09, global = 9.43418e-11, cumulative = 2.95407e-06
PIMPLE: iteration 2
smoothSolver:  Solving for Ux, Initial residual = 0.128567, Final residual = 5.71701e-08, No Iterations 2
smoothSolver:  Solving for Uy, Initial residual = 0.0761734, Final residual = 2.79285e-08, No Iterations 2
smoothSolver:  Solving for Uz, Initial residual = 0.073735, Final residual = 2.73948e-08, No Iterations 2
GAMG:  Solving for p, Initial residual = 0.550685, Final residual = 0.0233067, No Iterations 1
GAMG:  Solving for p, Initial residual = 0.144344, Final residual = 0.00769333, No Iterations 2
time step continuity errors : sum local = 4.86707e-06, global = -3.80523e-07, cumulative = 2.57355e-06
GAMG:  Solving for p, Initial residual = 0.220695, Final residual = 0.0115376, No Iterations 1
GAMG:  Solving for p, Initial residual = 0.0319349, Final residual = 8.36603e-07, No Iterations 11
time step continuity errors : sum local = 2.01283e-10, global = -1.18476e-11, cumulative = 2.57353e-06
smoothSolver:  Solving for omega, Initial residual = 0.00213396, Final residual = 4.56526e-09, No Iterations 2
smoothSolver:  Solving for k, Initial residual = 0.0857476, Final residual = 6.75743e-08, No Iterations 2
ExecutionTime = 0.3 s  ClockTime = 0 s

Courant Number mean: 0.0109463 max: 0.44943
deltaT = 4.00334e-05
Time = 0.000225211

PIMPLE: iteration 1
smoothSolver:  Solving for Ux, Initial residual = 1.27881e-06, Final residual = 6.6062e-14, No Iterations 1
smoothSolver:  Solving for Uy, Initial residual = 1.1449e-06, Final residual = 5.42698e-14, No Iterations 1
smoothSolver:  Solving for Uz, Initial residual = 1.10343e-06, Final residual = 5.43366e-14, No Iterations 1
GAMG:  Solving for p, Initial residual = 0.999975, Final residual = 0.0418374, No Iterations 1
GAMG:  Solving for p, Initial residual = 0.0488685, Final residual = 0.00258165, No Iterations 2
time step continuity errors : sum local = 4.75226e-06, global = 3.72851e-07, cumulative = 2.94639e-06
GAMG:  Solving for p, Initial residual = 0.999752, Final residual = 0.0418281, No Iterations 1
GAMG:  Solving for p, Initial residual = 0.0488628, Final residual = 9.24191e-07, No Iterations 11
time step continuity errors : sum local = 1.70127e-09, global = 9.58088e-11, cumulative = 2.94648e-06
PIMPLE: iteration 2
smoothSolver:  Solving for Ux, Initial residual = 0.11691, Final residual = 6.55187e-08, No Iterations 2
smoothSolver:  Solving for Uy, Initial residual = 0.0718834, Final residual = 3.32485e-08, No Iterations 2
smoothSolver:  Solving for Uz, Initial residual = 0.069445, Final residual = 3.25049e-08, No Iterations 2
GAMG:  Solving for p, Initial residual = 0.566207, Final residual = 0.0237179, No Iterations 1
GAMG:  Solving for p, Initial residual = 0.149932, Final residual = 0.0078244, No Iterations 2
time step continuity errors : sum local = 4.92436e-06, global = -3.85675e-07, cumulative = 2.56081e-06
GAMG:  Solving for p, Initial residual = 0.227585, Final residual = 0.0119098, No Iterations 1
GAMG:  Solving for p, Initial residual = 0.0331302, Final residual = 8.64826e-07, No Iterations 11
time step continuity errors : sum local = 2.02022e-10, global = -1.18979e-11, cumulative = 2.56079e-06
smoothSolver:  Solving for omega, Initial residual = 0.00224888, Final residual = 6.08439e-09, No Iterations 2
smoothSolver:  Solving for k, Initial residual = 0.0741128, Final residual = 7.77771e-08, No Iterations 2
ExecutionTime = 0.33 s  ClockTime = 0 s

Courant Number mean: 0.0121604 max: 0.490083
deltaT = 4.08435e-05
Time = 0.000266054

PIMPLE: iteration 1
smoothSolver:  Solving for Ux, Initial residual = 1.16841e-06, Final residual = 6.14186e-14, No Iterations 1
smoothSolver:  Solving for Uy, Initial residual = 1.05325e-06, Final residual = 5.13085e-14, No Iterations 1
smoothSolver:  Solving for Uz, Initial residual = 1.01247e-06, Final residual = 5.15112e-14, No Iterations 1
GAMG:  Solving for p, Initial residual = 0.999979, Final residual = 0.0414454, No Iterations 1
GAMG:  Solving for p, Initial residual = 0.0483815, Final residual = 0.00250189, No Iterations 2
time step continuity errors : sum local = 4.46127e-06, global = 3.5053e-07, cumulative = 2.91132e-06
GAMG:  Solving for p, Initial residual = 0.999757, Final residual = 0.0414363, No Iterations 1
GAMG:  Solving for p, Initial residual = 0.048376, Final residual = 8.94974e-07, No Iterations 11
time step continuity errors : sum local = 1.59591e-09, global = 8.99362e-11, cumulative = 2.91141e-06
PIMPLE: iteration 2
smoothSolver:  Solving for Ux, Initial residual = 0.107004, Final residual = 6.18663e-08, No Iterations 2
smoothSolver:  Solving for Uy, Initial residual = 0.0677064, Final residual = 3.23414e-08, No Iterations 2
smoothSolver:  Solving for Uz, Initial residual = 0.0652802, Final residual = 3.14038e-08, No Iterations 2
GAMG:  Solving for p, Initial residual = 0.578939, Final residual = 0.0240452, No Iterations 1
GAMG:  Solving for p, Initial residual = 0.154642, Final residual = 0.00791107, No Iterations 2
time step continuity errors : sum local = 4.57759e-06, global = -3.61427e-07, cumulative = 2.54999e-06
GAMG:  Solving for p, Initial residual = 0.231428, Final residual = 0.0121436, No Iterations 1
GAMG:  Solving for p, Initial residual = 0.0339454, Final residual = 8.85335e-07, No Iterations 11
time step continuity errors : sum local = 1.87045e-10, global = -1.10217e-11, cumulative = 2.54998e-06
smoothSolver:  Solving for omega, Initial residual = 0.00217286, Final residual = 6.04867e-09, No Iterations 2
smoothSolver:  Solving for k, Initial residual = 0.0601273, Final residual = 6.78809e-08, No Iterations 2
ExecutionTime = 0.36 s  ClockTime = 0 s

Courant Number mean: 0.0124031 max: 0.491032
deltaT = 4.15895e-05
Time = 0.000307644

PIMPLE: iteration 1
smoothSolver:  Solving for Ux, Initial residual = 1.12971e-06, Final residual = 5.9746e-14, No Iterations 1
smoothSolver:  Solving for Uy, Initial residual = 1.01466e-06, Final residual = 5.0253e-14, No Iterations 1
smoothSolver:  Solving for Uz, Initial residual = 9.73975e-07, Final residual = 9.73975e-07, No Iterations 0
GAMG:  Solving for p, Initial residual = 0.999981, Final residual = 0.0411129, No Iterations 1
GAMG:  Solving for p, Initial residual = 0.0479818, Final residual = 0.00243075, No Iterations 2
time step continuity errors : sum local = 4.20624e-06, global = 3.30798e-07, cumulative = 2.88077e-06
GAMG:  Solving for p, Initial residual = 0.99976, Final residual = 0.0411039, No Iterations 1
GAMG:  Solving for p, Initial residual = 0.0479763, Final residual = 8.68814e-07, No Iterations 11
time step continuity errors : sum local = 1.50344e-09, global = 8.4788e-11, cumulative = 2.88086e-06
PIMPLE: iteration 2
smoothSolver:  Solving for Ux, Initial residual = 0.0994563, Final residual = 5.90618e-08, No Iterations 2
smoothSolver:  Solving for Uy, Initial residual = 0.0645972, Final residual = 3.17233e-08, No Iterations 2
smoothSolver:  Solving for Uz, Initial residual = 0.0621848, Final residual = 3.0654e-08, No Iterations 2
GAMG:  Solving for p, Initial residual = 0.5911, Final residual = 0.0243626, No Iterations 1
GAMG:  Solving for p, Initial residual = 0.159486, Final residual = 0.00800142, No Iterations 2
time step continuity errors : sum local = 4.30879e-06, global = -3.40539e-07, cumulative = 2.54032e-06
GAMG:  Solving for p, Initial residual = 0.2356, Final residual = 0.0123971, No Iterations 1
GAMG:  Solving for p, Initial residual = 0.0348591, Final residual = 9.0889e-07, No Iterations 11
time step continuity errors : sum local = 1.75459e-10, global = -1.03409e-11, cumulative = 2.54031e-06
smoothSolver:  Solving for omega, Initial residual = 0.00209739, Final residual = 6.0146e-09, No Iterations 2
smoothSolver:  Solving for k, Initial residual = 0.0501986, Final residual = 6.03686e-08, No Iterations 2
ExecutionTime = 0.39 s  ClockTime = 0 s

Courant Number mean: 0.0126264 max: 0.491364
deltaT = 4.23205e-05
Time = 0.000349964

PIMPLE: iteration 1
smoothSolver:  Solving for Ux, Initial residual = 1.10636e-06, Final residual = 5.86965e-14, No Iterations 1
smoothSolver:  Solving for Uy, Initial residual = 9.86735e-07, Final residual = 9.86735e-07, No Iterations 0
smoothSolver:  Solving for Uz, Initial residual = 9.45816e-07, Final residual = 9.45816e-07, No Iterations 0
GAMG:  Solving for p, Initial residual = 0.999982, Final residual = 0.0408254, No Iterations 1
GAMG:  Solving for p, Initial residual = 0.0476541, Final residual = 0.00236702, No Iterations 2
time step continuity errors : sum local = 3.98447e-06, global = 3.13508e-07, cumulative = 2.85382e-06
GAMG:  Solving for p, Initial residual = 0.999761, Final residual = 0.0408165, No Iterations 1
GAMG:  Solving for p, Initial residual = 0.0476486, Final residual = 8.45298e-07, No Iterations 11
time step continuity errors : sum local = 1.42293e-09, global = 8.031e-11, cumulative = 2.8539e-06
PIMPLE: iteration 2
smoothSolver:  Solving for Ux, Initial residual = 0.0931052, Final residual = 5.68732e-08, No Iterations 2
smoothSolver:  Solving for Uy, Initial residual = 0.0619284, Final residual = 3.12346e-08, No Iterations 2
smoothSolver:  Solving for Uz, Initial residual = 0.0595341, Final residual = 3.00806e-08, No Iterations 2
GAMG:  Solving for p, Initial residual = 0.602121, Final residual = 0.024654, No Iterations 1
GAMG:  Solving for p, Initial residual = 0.164156, Final residual = 0.008084, No Iterations 2
time step continuity errors : sum local = 4.07669e-06, global = -3.22357e-07, cumulative = 2.53154e-06
GAMG:  Solving for p, Initial residual = 0.239147, Final residual = 0.0126191, No Iterations 1
GAMG:  Solving for p, Initial residual = 0.0356866, Final residual = 9.3016e-07, No Iterations 11
time step continuity errors : sum local = 1.65459e-10, global = -9.75334e-12, cumulative = 2.53153e-06
smoothSolver:  Solving for omega, Initial residual = 0.00202438, Final residual = 5.99454e-09, No Iterations 2
smoothSolver:  Solving for k, Initial residual = 0.0428374, Final residual = 5.47069e-08, No Iterations 2
ExecutionTime = 0.43 s  ClockTime = 0 s

Courant Number mean: 0.0128453 max: 0.491684
deltaT = 4.30362e-05
Time = 0.000393

PIMPLE: iteration 1
smoothSolver:  Solving for Ux, Initial residual = 1.09267e-06, Final residual = 5.80485e-14, No Iterations 1
smoothSolver:  Solving for Uy, Initial residual = 9.65892e-07, Final residual = 9.65892e-07, No Iterations 0
smoothSolver:  Solving for Uz, Initial residual = 9.24657e-07, Final residual = 9.24657e-07, No Iterations 0
GAMG:  Solving for p, Initial residual = 0.999982, Final residual = 0.0405777, No Iterations 1
GAMG:  Solving for p, Initial residual = 0.0473818, Final residual = 0.00230977, No Iterations 2
time step continuity errors : sum local = 3.78972e-06, global = 2.98203e-07, cumulative = 2.82973e-06
GAMG:  Solving for p, Initial residual = 0.999763, Final residual = 0.0405689, No Iterations 1
GAMG:  Solving for p, Initial residual = 0.0473764, Final residual = 8.24074e-07, No Iterations 11
time step continuity errors : sum local = 1.35211e-09, global = 7.63751e-11, cumulative = 2.82981e-06
PIMPLE: iteration 2
smoothSolver:  Solving for Ux, Initial residual = 0.0876942, Final residual = 5.50786e-08, No Iterations 2
smoothSolver:  Solving for Uy, Initial residual = 0.0596047, Final residual = 3.08612e-08, No Iterations 2
smoothSolver:  Solving for Uz, Initial residual = 0.0572377, Final residual = 2.9673e-08, No Iterations 2
GAMG:  Solving for p, Initial residual = 0.612164, Final residual = 0.0249208, No Iterations 1
GAMG:  Solving for p, Initial residual = 0.168674, Final residual = 0.0081602, No Iterations 2
time step continuity errors : sum local = 3.87351e-06, global = -3.06346e-07, cumulative = 2.52346e-06
GAMG:  Solving for p, Initial residual = 0.242115, Final residual = 0.0128126, No Iterations 1
GAMG:  Solving for p, Initial residual = 0.0364378, Final residual = 9.49346e-07, No Iterations 11
time step continuity errors : sum local = 1.56709e-10, global = -9.23901e-12, cumulative = 2.52346e-06
smoothSolver:  Solving for omega, Initial residual = 0.00195351, Final residual = 5.97908e-09, No Iterations 2
smoothSolver:  Solving for k, Initial residual = 0.0371916, Final residual = 5.02901e-08, No Iterations 2
ExecutionTime = 0.46 s  ClockTime = 0 s

Courant Number mean: 0.0130597 max: 0.491994
deltaT = 4.37365e-05
Time = 0.000436737

PIMPLE: iteration 1
smoothSolver:  Solving for Ux, Initial residual = 1.08508e-06, Final residual = 5.76404e-14, No Iterations 1
smoothSolver:  Solving for Uy, Initial residual = 9.50254e-07, Final residual = 9.50254e-07, No Iterations 0
smoothSolver:  Solving for Uz, Initial residual = 9.08579e-07, Final residual = 9.08579e-07, No Iterations 0
GAMG:  Solving for p, Initial residual = 0.999983, Final residual = 0.0403609, No Iterations 1
GAMG:  Solving for p, Initial residual = 0.0471506, Final residual = 0.00225805, No Iterations 2
time step continuity errors : sum local = 3.61701e-06, global = 2.84539e-07, cumulative = 2.80799e-06
GAMG:  Solving for p, Initial residual = 0.999765, Final residual = 0.0403521, No Iterations 1
GAMG:  Solving for p, Initial residual = 0.0471452, Final residual = 8.04851e-07, No Iterations 11
time step continuity errors : sum local = 1.28925e-09, global = 7.28868e-11, cumulative = 2.80807e-06
PIMPLE: iteration 2
smoothSolver:  Solving for Ux, Initial residual = 0.0830384, Final residual = 5.36604e-08, No Iterations 2
smoothSolver:  Solving for Uy, Initial residual = 0.0575609, Final residual = 3.0644e-08, No Iterations 2
smoothSolver:  Solving for Uz, Initial residual = 0.0552256, Final residual = 2.93742e-08, No Iterations 2
GAMG:  Solving for p, Initial residual = 0.621331, Final residual = 0.0251654, No Iterations 1
GAMG:  Solving for p, Initial residual = 0.173027, Final residual = 0.00823071, No Iterations 2
time step continuity errors : sum local = 3.69396e-06, global = -2.92116e-07, cumulative = 2.51595e-06
GAMG:  Solving for p, Initial residual = 0.244573, Final residual = 0.0129813, No Iterations 1
GAMG:  Solving for p, Initial residual = 0.0371202, Final residual = 9.66625e-07, No Iterations 11
time step continuity errors : sum local = 1.4898e-10, global = -8.78486e-12, cumulative = 2.51594e-06
smoothSolver:  Solving for omega, Initial residual = 0.00188498, Final residual = 5.97717e-09, No Iterations 2
smoothSolver:  Solving for k, Initial residual = 0.0327248, Final residual = 4.66342e-08, No Iterations 2
ExecutionTime = 0.49 s  ClockTime = 0 s

Courant Number mean: 0.0132696 max: 0.492286
deltaT = 4.44219e-05
Time = 0.000481159

PIMPLE: iteration 1
smoothSolver:  Solving for Ux, Initial residual = 1.08119e-06, Final residual = 5.73893e-14, No Iterations 1
smoothSolver:  Solving for Uy, Initial residual = 9.38227e-07, Final residual = 9.38227e-07, No Iterations 0
smoothSolver:  Solving for Uz, Initial residual = 8.96326e-07, Final residual = 8.96326e-07, No Iterations 0
GAMG:  Solving for p, Initial residual = 0.999983, Final residual = 0.0401693, No Iterations 1
GAMG:  Solving for p, Initial residual = 0.0469564, Final residual = 0.00221119, No Iterations 2
time step continuity errors : sum local = 3.46274e-06, global = 2.72259e-07, cumulative = 2.7882e-06
GAMG:  Solving for p, Initial residual = 0.999766, Final residual = 0.0401606, No Iterations 1
GAMG:  Solving for p, Initial residual = 0.0469511, Final residual = 7.87392e-07, No Iterations 11
time step continuity errors : sum local = 1.23308e-09, global = 6.97722e-11, cumulative = 2.78827e-06
PIMPLE: iteration 2
smoothSolver:  Solving for Ux, Initial residual = 0.0790019, Final residual = 5.25184e-08, No Iterations 2
smoothSolver:  Solving for Uy, Initial residual = 0.0557511, Final residual = 3.0526e-08, No Iterations 2
smoothSolver:  Solving for Uz, Initial residual = 0.0534474, Final residual = 2.91616e-08, No Iterations 2
GAMG:  Solving for p, Initial residual = 0.62975, Final residual = 0.0253921, No Iterations 1
GAMG:  Solving for p, Initial residual = 0.177214, Final residual = 0.00829647, No Iterations 2
time step continuity errors : sum local = 3.53401e-06, global = -2.79356e-07, cumulative = 2.50892e-06
GAMG:  Solving for p, Initial residual = 0.246614, Final residual = 0.0131297, No Iterations 1
GAMG:  Solving for p, Initial residual = 0.0377454, Final residual = 9.82335e-07, No Iterations 11
time step continuity errors : sum local = 1.42105e-10, global = -8.38077e-12, cumulative = 2.50891e-06
smoothSolver:  Solving for omega, Initial residual = 0.00181871, Final residual = 5.95202e-09, No Iterations 2
smoothSolver:  Solving for k, Initial residual = 0.0291091, Final residual = 4.36042e-08, No Iterations 2
ExecutionTime = 0.53 s  ClockTime = 0 s

Courant Number mean: 0.013475 max: 0.492548
deltaT = 4.5094e-05
Time = 0.000526253

PIMPLE: iteration 1
smoothSolver:  Solving for Ux, Initial residual = 1.07979e-06, Final residual = 5.7272e-14, No Iterations 1
smoothSolver:  Solving for Uy, Initial residual = 9.28948e-07, Final residual = 9.28948e-07, No Iterations 0
smoothSolver:  Solving for Uz, Initial residual = 8.8683e-07, Final residual = 8.8683e-07, No Iterations 0
GAMG:  Solving for p, Initial residual = 0.999983, Final residual = 0.0400013, No Iterations 1
GAMG:  Solving for p, Initial residual = 0.0467926, Final residual = 0.00216859, No Iterations 2
time step continuity errors : sum local = 3.32417e-06, global = 2.6116e-07, cumulative = 2.77007e-06
GAMG:  Solving for p, Initial residual = 0.999768, Final residual = 0.0399927, No Iterations 1
GAMG:  Solving for p, Initial residual = 0.0467873, Final residual = 7.71477e-07, No Iterations 11
time step continuity errors : sum local = 1.18259e-09, global = 6.69752e-11, cumulative = 2.77013e-06
PIMPLE: iteration 2
smoothSolver:  Solving for Ux, Initial residual = 0.0754684, Final residual = 5.15817e-08, No Iterations 2
smoothSolver:  Solving for Uy, Initial residual = 0.0541379, Final residual = 3.04893e-08, No Iterations 2
smoothSolver:  Solving for Uz, Initial residual = 0.051861, Final residual = 2.9045e-08, No Iterations 2
GAMG:  Solving for p, Initial residual = 0.637503, Final residual = 0.0256015, No Iterations 1
GAMG:  Solving for p, Initial residual = 0.181241, Final residual = 0.00835775, No Iterations 2
time step continuity errors : sum local = 3.39057e-06, global = -2.67865e-07, cumulative = 2.50227e-06
GAMG:  Solving for p, Initial residual = 0.248296, Final residual = 0.0132603, No Iterations 1
GAMG:  Solving for p, Initial residual = 0.0383216, Final residual = 9.96652e-07, No Iterations 11
time step continuity errors : sum local = 1.35951e-10, global = -8.01901e-12, cumulative = 2.50226e-06
smoothSolver:  Solving for omega, Initial residual = 0.00175486, Final residual = 5.96377e-09, No Iterations 2
smoothSolver:  Solving for k, Initial residual = 0.0261257, Final residual = 4.11618e-08, No Iterations 2
ExecutionTime = 0.56 s  ClockTime = 0 s

Courant Number mean: 0.0136765 max: 0.492811
deltaT = 4.57518e-05
Time = 0.000572005

PIMPLE: iteration 1
smoothSolver:  Solving for Ux, Initial residual = 1.07982e-06, Final residual = 5.72227e-14, No Iterations 1
smoothSolver:  Solving for Uy, Initial residual = 9.2199e-07, Final residual = 9.2199e-07, No Iterations 0
smoothSolver:  Solving for Uz, Initial residual = 8.79449e-07, Final residual = 8.79449e-07, No Iterations 0
GAMG:  Solving for p, Initial residual = 0.999984, Final residual = 0.0398517, No Iterations 1
GAMG:  Solving for p, Initial residual = 0.0466548, Final residual = 0.00212976, No Iterations 2
time step continuity errors : sum local = 3.19889e-06, global = 2.51074e-07, cumulative = 2.75333e-06
GAMG:  Solving for p, Initial residual = 0.999769, Final residual = 0.0398432, No Iterations 1
GAMG:  Solving for p, Initial residual = 0.0466496, Final residual = 7.56929e-07, No Iterations 11
time step continuity errors : sum local = 1.13692e-09, global = 6.44485e-11, cumulative = 2.7534e-06
PIMPLE: iteration 2
smoothSolver:  Solving for Ux, Initial residual = 0.0723598, Final residual = 5.0833e-08, No Iterations 2
smoothSolver:  Solving for Uy, Initial residual = 0.0526904, Final residual = 3.05192e-08, No Iterations 2
smoothSolver:  Solving for Uz, Initial residual = 0.0504379, Final residual = 2.90168e-08, No Iterations 2
GAMG:  Solving for p, Initial residual = 0.644623, Final residual = 0.0257953, No Iterations 1
GAMG:  Solving for p, Initial residual = 0.185127, Final residual = 0.00841594, No Iterations 2
time step continuity errors : sum local = 3.26142e-06, global = -2.55595e-07, cumulative = 2.4978e-06
GAMG:  Solving for p, Initial residual = 0.249686, Final residual = 0.0133746, No Iterations 1
GAMG:  Solving for p, Initial residual = 0.0388396, Final residual = 4.22496e-07, No Iterations 12
time step continuity errors : sum local = 5.45787e-11, global = -3.19344e-12, cumulative = 2.4978e-06
smoothSolver:  Solving for omega, Initial residual = 0.00169323, Final residual = 5.97345e-09, No Iterations 2
smoothSolver:  Solving for k, Initial residual = 0.0236247, Final residual = 3.90142e-08, No Iterations 2
ExecutionTime = 0.59 s  ClockTime = 0 s

Courant Number mean: 0.0138738 max: 0.493213
deltaT = 4.63814e-05
Time = 0.000618386

PIMPLE: iteration 1
smoothSolver:  Solving for Ux, Initial residual = 1.08064e-06, Final residual = 5.72214e-14, No Iterations 1
smoothSolver:  Solving for Uy, Initial residual = 9.16269e-07, Final residual = 9.16269e-07, No Iterations 0
smoothSolver:  Solving for Uz, Initial residual = 8.73474e-07, Final residual = 8.73474e-07, No Iterations 0
GAMG:  Solving for p, Initial residual = 0.999984, Final residual = 0.0397174, No Iterations 1
GAMG:  Solving for p, Initial residual = 0.0465388, Final residual = 0.00209437, No Iterations 2
time step continuity errors : sum local = 3.08419e-06, global = 2.4179e-07, cumulative = 2.73959e-06
GAMG:  Solving for p, Initial residual = 0.99977, Final residual = 0.0397089, No Iterations 1
GAMG:  Solving for p, Initial residual = 0.0465336, Final residual = 7.43624e-07, No Iterations 11
time step continuity errors : sum local = 1.09508e-09, global = 6.2135e-11, cumulative = 2.73965e-06
PIMPLE: iteration 2
smoothSolver:  Solving for Ux, Initial residual = 0.0696045, Final residual = 5.01311e-08, No Iterations 2
smoothSolver:  Solving for Uy, Initial residual = 0.0513824, Final residual = 3.05566e-08, No Iterations 2
smoothSolver:  Solving for Uz, Initial residual = 0.0491551, Final residual = 2.90082e-08, No Iterations 2
GAMG:  Solving for p, Initial residual = 0.651195, Final residual = 0.0259757, No Iterations 1
GAMG:  Solving for p, Initial residual = 0.188857, Final residual = 0.00846963, No Iterations 2
time step continuity errors : sum local = 3.14293e-06, global = -2.46062e-07, cumulative = 2.49359e-06
GAMG:  Solving for p, Initial residual = 0.250753, Final residual = 0.0134732, No Iterations 1
GAMG:  Solving for p, Initial residual = 0.0393222, Final residual = 4.27297e-07, No Iterations 12
time step continuity errors : sum local = 5.24541e-11, global = -3.07054e-12, cumulative = 2.49359e-06
smoothSolver:  Solving for omega, Initial residual = 0.00163286, Final residual = 5.97743e-09, No Iterations 2
smoothSolver:  Solving for k, Initial residual = 0.0214953, Final residual = 3.71331e-08, No Iterations 2
ExecutionTime = 0.62 s  ClockTime = 0 s

Courant Number mean: 0.0140625 max: 0.493642
deltaT = 4.69787e-05
Time = 0.000665365

PIMPLE: iteration 1
smoothSolver:  Solving for Ux, Initial residual = 1.08132e-06, Final residual = 5.71943e-14, No Iterations 1
smoothSolver:  Solving for Uy, Initial residual = 9.11602e-07, Final residual = 9.11602e-07, No Iterations 0
smoothSolver:  Solving for Uz, Initial residual = 8.6847e-07, Final residual = 8.6847e-07, No Iterations 0
GAMG:  Solving for p, Initial residual = 0.999984, Final residual = 0.0395965, No Iterations 1
GAMG:  Solving for p, Initial residual = 0.0464417, Final residual = 0.00206206, No Iterations 2
time step continuity errors : sum local = 2.97838e-06, global = 2.33187e-07, cumulative = 2.72678e-06
GAMG:  Solving for p, Initial residual = 0.99977, Final residual = 0.039588, No Iterations 1
GAMG:  Solving for p, Initial residual = 0.0464365, Final residual = 7.31433e-07, No Iterations 11
time step continuity errors : sum local = 1.05648e-09, global = 6.00015e-11, cumulative = 2.72684e-06
PIMPLE: iteration 2
smoothSolver:  Solving for Ux, Initial residual = 0.0671479, Final residual = 4.9526e-08, No Iterations 2
smoothSolver:  Solving for Uy, Initial residual = 0.0502, Final residual = 3.06069e-08, No Iterations 2
smoothSolver:  Solving for Uz, Initial residual = 0.0479956, Final residual = 2.9025e-08, No Iterations 2
GAMG:  Solving for p, Initial residual = 0.657267, Final residual = 0.0261428, No Iterations 1
GAMG:  Solving for p, Initial residual = 0.192424, Final residual = 0.00851925, No Iterations 2
time step continuity errors : sum local = 3.03368e-06, global = -2.37244e-07, cumulative = 2.48959e-06
GAMG:  Solving for p, Initial residual = 0.251549, Final residual = 0.0135574, No Iterations 1
GAMG:  Solving for p, Initial residual = 0.039756, Final residual = 4.31583e-07, No Iterations 12
time step continuity errors : sum local = 5.05032e-11, global = -2.95765e-12, cumulative = 2.48959e-06
smoothSolver:  Solving for omega, Initial residual = 0.00157386, Final residual = 5.96478e-09, No Iterations 2
smoothSolver:  Solving for k, Initial residual = 0.0196594, Final residual = 3.53137e-08, No Iterations 2
ExecutionTime = 0.65 s  ClockTime = 0 s

Courant Number mean: 0.0142416 max: 0.493996
deltaT = 4.75497e-05
Time = 0.000712915

PIMPLE: iteration 1
smoothSolver:  Solving for Ux, Initial residual = 1.08184e-06, Final residual = 5.71922e-14, No Iterations 1
smoothSolver:  Solving for Uy, Initial residual = 9.07706e-07, Final residual = 9.07706e-07, No Iterations 0
smoothSolver:  Solving for Uz, Initial residual = 8.64384e-07, Final residual = 8.64384e-07, No Iterations 0
GAMG:  Solving for p, Initial residual = 0.999984, Final residual = 0.0394859, No Iterations 1
GAMG:  Solving for p, Initial residual = 0.0463647, Final residual = 0.00203249, No Iterations 2
time step continuity errors : sum local = 2.88071e-06, global = 2.2521e-07, cumulative = 2.7148e-06
GAMG:  Solving for p, Initial residual = 0.999771, Final residual = 0.0394776, No Iterations 1
GAMG:  Solving for p, Initial residual = 0.0463595, Final residual = 7.2023e-07, No Iterations 11
time step continuity errors : sum local = 1.02082e-09, global = 5.80322e-11, cumulative = 2.71486e-06
PIMPLE: iteration 2
smoothSolver:  Solving for Ux, Initial residual = 0.0649411, Final residual = 4.89771e-08, No Iterations 2
smoothSolver:  Solving for Uy, Initial residual = 0.0491265, Final residual = 3.06594e-08, No Iterations 2
smoothSolver:  Solving for Uz, Initial residual = 0.0469452, Final residual = 2.90622e-08, No Iterations 2
GAMG:  Solving for p, Initial residual = 0.662895, Final residual = 0.0262981, No Iterations 1
GAMG:  Solving for p, Initial residual = 0.195853, Final residual = 0.0085655, No Iterations 2
time step continuity errors : sum local = 2.93296e-06, global = -2.29078e-07, cumulative = 2.48578e-06
GAMG:  Solving for p, Initial residual = 0.252131, Final residual = 0.0136294, No Iterations 1
GAMG:  Solving for p, Initial residual = 0.0401515, Final residual = 4.35427e-07, No Iterations 12
time step continuity errors : sum local = 4.87085e-11, global = -2.85379e-12, cumulative = 2.48578e-06
smoothSolver:  Solving for omega, Initial residual = 0.00151677, Final residual = 5.95997e-09, No Iterations 2
smoothSolver:  Solving for k, Initial residual = 0.0180693, Final residual = 3.37426e-08, No Iterations 2
ExecutionTime = 0.69 s  ClockTime = 1 s

Courant Number mean: 0.0144128 max: 0.494358
deltaT = 4.80924e-05
Time = 0.000761007

PIMPLE: iteration 1
smoothSolver:  Solving for Ux, Initial residual = 1.08208e-06, Final residual = 5.71447e-14, No Iterations 1
smoothSolver:  Solving for Uy, Initial residual = 9.04433e-07, Final residual = 9.04433e-07, No Iterations 0
smoothSolver:  Solving for Uz, Initial residual = 8.6087e-07, Final residual = 8.6087e-07, No Iterations 0
GAMG:  Solving for p, Initial residual = 0.999985, Final residual = 0.0393844, No Iterations 1
GAMG:  Solving for p, Initial residual = 0.0463047, Final residual = 0.00200534, No Iterations 2
time step continuity errors : sum local = 2.78998e-06, global = 2.17774e-07, cumulative = 2.70355e-06
GAMG:  Solving for p, Initial residual = 0.999772, Final residual = 0.0393761, No Iterations 1
GAMG:  Solving for p, Initial residual = 0.0462995, Final residual = 7.09899e-07, No Iterations 11
time step continuity errors : sum local = 9.87675e-10, global = 5.62035e-11, cumulative = 2.70361e-06
PIMPLE: iteration 2
smoothSolver:  Solving for Ux, Initial residual = 0.0629556, Final residual = 4.84971e-08, No Iterations 2
smoothSolver:  Solving for Uy, Initial residual = 0.0481498, Final residual = 3.07369e-08, No Iterations 2
smoothSolver:  Solving for Uz, Initial residual = 0.0459876, Final residual = 2.91103e-08, No Iterations 2
GAMG:  Solving for p, Initial residual = 0.668096, Final residual = 0.0264402, No Iterations 1
GAMG:  Solving for p, Initial residual = 0.199134, Final residual = 0.00860851, No Iterations 2
time step continuity errors : sum local = 2.83953e-06, global = -2.21475e-07, cumulative = 2.48213e-06
GAMG:  Solving for p, Initial residual = 0.252498, Final residual = 0.0136898, No Iterations 1
GAMG:  Solving for p, Initial residual = 0.0405112, Final residual = 4.38865e-07, No Iterations 12
time step continuity errors : sum local = 4.70498e-11, global = -2.75779e-12, cumulative = 2.48213e-06
smoothSolver:  Solving for omega, Initial residual = 0.00146154, Final residual = 5.96123e-09, No Iterations 2
smoothSolver:  Solving for k, Initial residual = 0.0166758, Final residual = 3.2352e-08, No Iterations 2
ExecutionTime = 0.73 s  ClockTime = 1 s

Courant Number mean: 0.0145755 max: 0.495884
deltaT = 4.84915e-05
Time = 0.000809498

PIMPLE: iteration 1
smoothSolver:  Solving for Ux, Initial residual = 1.07943e-06, Final residual = 5.68098e-14, No Iterations 1
smoothSolver:  Solving for Uy, Initial residual = 8.99443e-07, Final residual = 8.99443e-07, No Iterations 0
smoothSolver:  Solving for Uz, Initial residual = 8.55753e-07, Final residual = 8.55753e-07, No Iterations 0
GAMG:  Solving for p, Initial residual = 0.999985, Final residual = 0.0392943, No Iterations 1
GAMG:  Solving for p, Initial residual = 0.0462564, Final residual = 0.00462097, No Iterations 1
time step continuity errors : sum local = 6.29755e-06, global = 2.90383e-07, cumulative = 2.77251e-06
GAMG:  Solving for p, Initial residual = 0.999778, Final residual = 0.0392863, No Iterations 1
GAMG:  Solving for p, Initial residual = 0.0462514, Final residual = 7.00395e-07, No Iterations 11
time step continuity errors : sum local = 9.5452e-10, global = 5.43709e-11, cumulative = 2.77257e-06
PIMPLE: iteration 2
smoothSolver:  Solving for Ux, Initial residual = 0.0611561, Final residual = 4.78195e-08, No Iterations 2
smoothSolver:  Solving for Uy, Initial residual = 0.047249, Final residual = 3.06395e-08, No Iterations 2
smoothSolver:  Solving for Uz, Initial residual = 0.0451009, Final residual = 2.89872e-08, No Iterations 2
GAMG:  Solving for p, Initial residual = 0.67287, Final residual = 0.026571, No Iterations 1
GAMG:  Solving for p, Initial residual = 0.202271, Final residual = 0.00864817, No Iterations 2
time step continuity errors : sum local = 2.74565e-06, global = -2.1384e-07, cumulative = 2.55873e-06
GAMG:  Solving for p, Initial residual = 0.252662, Final residual = 0.0137392, No Iterations 1
GAMG:  Solving for p, Initial residual = 0.040839, Final residual = 4.41966e-07, No Iterations 12
time step continuity errors : sum local = 4.54006e-11, global = -2.66216e-12, cumulative = 2.55872e-06
smoothSolver:  Solving for omega, Initial residual = 0.00140502, Final residual = 5.91205e-09, No Iterations 2
smoothSolver:  Solving for k, Initial residual = 0.015407, Final residual = 3.08192e-08, No Iterations 2
ExecutionTime = 0.76 s  ClockTime = 1 s

Courant Number mean: 0.0146948 max: 0.498662
deltaT = 4.86217e-05
Time = 0.00085812

PIMPLE: iteration 1
smoothSolver:  Solving for Ux, Initial residual = 1.07116e-06, Final residual = 5.59012e-14, No Iterations 1
smoothSolver:  Solving for Uy, Initial residual = 8.90479e-07, Final residual = 8.90479e-07, No Iterations 0
smoothSolver:  Solving for Uz, Initial residual = 8.46955e-07, Final residual = 8.46955e-07, No Iterations 0
GAMG:  Solving for p, Initial residual = 0.999985, Final residual = 0.039213, No Iterations 1
GAMG:  Solving for p, Initial residual = 0.0462216, Final residual = 0.00457165, No Iterations 1
time step continuity errors : sum local = 6.0746e-06, global = 2.81114e-07, cumulative = 2.83984e-06
GAMG:  Solving for p, Initial residual = 0.999778, Final residual = 0.0392051, No Iterations 1
GAMG:  Solving for p, Initial residual = 0.0462167, Final residual = 6.91596e-07, No Iterations 11
time step continuity errors : sum local = 9.18969e-10, global = 5.23989e-11, cumulative = 2.83989e-06
PIMPLE: iteration 2
smoothSolver:  Solving for Ux, Initial residual = 0.0595142, Final residual = 4.66373e-08, No Iterations 2
smoothSolver:  Solving for Uy, Initial residual = 0.0464066, Final residual = 3.01978e-08, No Iterations 2
smoothSolver:  Solving for Uz, Initial residual = 0.0442685, Final residual = 2.85034e-08, No Iterations 2
GAMG:  Solving for p, Initial residual = 0.677188, Final residual = 0.0266891, No Iterations 1
GAMG:  Solving for p, Initial residual = 0.205234, Final residual = 0.0203457, No Iterations 1
time step continuity errors : sum local = 6.19632e-06, global = -2.75993e-07, cumulative = 2.5639e-06
GAMG:  Solving for p, Initial residual = 0.120828, Final residual = 0.00666775, No Iterations 2
GAMG:  Solving for p, Initial residual = 0.142548, Final residual = 4.83646e-07, No Iterations 12
time step continuity errors : sum local = 4.66439e-11, global = -2.70359e-12, cumulative = 2.5639e-06
smoothSolver:  Solving for omega, Initial residual = 0.00134435, Final residual = 5.75603e-09, No Iterations 2
smoothSolver:  Solving for k, Initial residual = 0.0142106, Final residual = 2.88829e-08, No Iterations 2
ExecutionTime = 0.79 s  ClockTime = 1 s

Courant Number mean: 0.0147328 max: 0.498478
deltaT = 4.87702e-05
Time = 0.00090689

PIMPLE: iteration 1
smoothSolver:  Solving for Ux, Initial residual = 1.06721e-06, Final residual = 5.51989e-14, No Iterations 1
smoothSolver:  Solving for Uy, Initial residual = 8.8256e-07, Final residual = 8.8256e-07, No Iterations 0
smoothSolver:  Solving for Uz, Initial residual = 8.39803e-07, Final residual = 8.39803e-07, No Iterations 0
GAMG:  Solving for p, Initial residual = 0.999985, Final residual = 0.0391249, No Iterations 1
GAMG:  Solving for p, Initial residual = 0.0461789, Final residual = 0.00451458, No Iterations 1
time step continuity errors : sum local = 5.85302e-06, global = 2.72725e-07, cumulative = 2.83662e-06
GAMG:  Solving for p, Initial residual = 0.999779, Final residual = 0.039117, No Iterations 1
GAMG:  Solving for p, Initial residual = 0.046174, Final residual = 6.81233e-07, No Iterations 11
time step continuity errors : sum local = 8.83206e-10, global = 5.04288e-11, cumulative = 2.83667e-06
PIMPLE: iteration 2
smoothSolver:  Solving for Ux, Initial residual = 0.0579236, Final residual = 4.54205e-08, No Iterations 2
smoothSolver:  Solving for Uy, Initial residual = 0.0456355, Final residual = 2.98273e-08, No Iterations 2
smoothSolver:  Solving for Uz, Initial residual = 0.0435061, Final residual = 2.80649e-08, No Iterations 2
GAMG:  Solving for p, Initial residual = 0.682393, Final residual = 0.026827, No Iterations 1
GAMG:  Solving for p, Initial residual = 0.208962, Final residual = 0.0204514, No Iterations 1
time step continuity errors : sum local = 5.96855e-06, global = -2.67907e-07, cumulative = 2.56876e-06
GAMG:  Solving for p, Initial residual = 0.120229, Final residual = 0.00667172, No Iterations 2
GAMG:  Solving for p, Initial residual = 0.140359, Final residual = 4.74955e-07, No Iterations 12
time step continuity errors : sum local = 4.48362e-11, global = -2.6006e-12, cumulative = 2.56876e-06
smoothSolver:  Solving for omega, Initial residual = 0.00128801, Final residual = 5.61868e-09, No Iterations 2
smoothSolver:  Solving for k, Initial residual = 0.0131629, Final residual = 2.72147e-08, No Iterations 2
ExecutionTime = 0.82 s  ClockTime = 1 s

Courant Number mean: 0.0147764 max: 0.498479
deltaT = 4.8919e-05
Time = 0.000955809

PIMPLE: iteration 1
smoothSolver:  Solving for Ux, Initial residual = 1.05977e-06, Final residual = 5.44384e-14, No Iterations 1
smoothSolver:  Solving for Uy, Initial residual = 8.7536e-07, Final residual = 8.7536e-07, No Iterations 0
smoothSolver:  Solving for Uz, Initial residual = 8.32626e-07, Final residual = 8.32626e-07, No Iterations 0
GAMG:  Solving for p, Initial residual = 0.999985, Final residual = 0.0390364, No Iterations 1
GAMG:  Solving for p, Initial residual = 0.0461614, Final residual = 0.00446854, No Iterations 1
time step continuity errors : sum local = 5.65589e-06, global = 2.66596e-07, cumulative = 2.83536e-06
GAMG:  Solving for p, Initial residual = 0.999779, Final residual = 0.0390285, No Iterations 1
GAMG:  Solving for p, Initial residual = 0.0461565, Final residual = 6.72323e-07, No Iterations 11
time step continuity errors : sum local = 8.50973e-10, global = 4.86802e-11, cumulative = 2.83541e-06
PIMPLE: iteration 2
smoothSolver:  Solving for Ux, Initial residual = 0.0564249, Final residual = 4.44223e-08, No Iterations 2
smoothSolver:  Solving for Uy, Initial residual = 0.0448915, Final residual = 2.95077e-08, No Iterations 2
smoothSolver:  Solving for Uz, Initial residual = 0.0427722, Final residual = 2.77175e-08, No Iterations 2
GAMG:  Solving for p, Initial residual = 0.686826, Final residual = 0.0269474, No Iterations 1
GAMG:  Solving for p, Initial residual = 0.212182, Final residual = 0.020553, No Iterations 1
time step continuity errors : sum local = 5.75992e-06, global = -2.60109e-07, cumulative = 2.5753e-06
GAMG:  Solving for p, Initial residual = 0.119816, Final residual = 0.00667527, No Iterations 2
GAMG:  Solving for p, Initial residual = 0.13818, Final residual = 4.66436e-07, No Iterations 12
time step continuity errors : sum local = 4.31579e-11, global = -2.50456e-12, cumulative = 2.57529e-06
smoothSolver:  Solving for omega, Initial residual = 0.00123531, Final residual = 5.4892e-09, No Iterations 2
smoothSolver:  Solving for k, Initial residual = 0.0122347, Final residual = 2.57699e-08, No Iterations 2
ExecutionTime = 0.86 s  ClockTime = 1 s

Courant Number mean: 0.0148202 max: 0.498499
deltaT = 4.90662e-05
Time = 0.00100488

PIMPLE: iteration 1
smoothSolver:  Solving for Ux, Initial residual = 1.05254e-06, Final residual = 5.37004e-14, No Iterations 1
smoothSolver:  Solving for Uy, Initial residual = 8.68608e-07, Final residual = 8.68608e-07, No Iterations 0
smoothSolver:  Solving for Uz, Initial residual = 8.25892e-07, Final residual = 8.25892e-07, No Iterations 0
GAMG:  Solving for p, Initial residual = 0.999985, Final residual = 0.0389573, No Iterations 1
GAMG:  Solving for p, Initial residual = 0.0461375, Final residual = 0.00442009, No Iterations 1
time step continuity errors : sum local = 5.46875e-06, global = 2.59605e-07, cumulative = 2.8349e-06
GAMG:  Solving for p, Initial residual = 0.99978, Final residual = 0.0389495, No Iterations 1
GAMG:  Solving for p, Initial residual = 0.0461327, Final residual = 6.63254e-07, No Iterations 11
time step continuity errors : sum local = 8.20616e-10, global = 4.70094e-11, cumulative = 2.83495e-06
PIMPLE: iteration 2
smoothSolver:  Solving for Ux, Initial residual = 0.0550491, Final residual = 4.35181e-08, No Iterations 2
smoothSolver:  Solving for Uy, Initial residual = 0.0442098, Final residual = 2.92264e-08, No Iterations 2
smoothSolver:  Solving for Uz, Initial residual = 0.042095, Final residual = 2.74341e-08, No Iterations 2
GAMG:  Solving for p, Initial residual = 0.690941, Final residual = 0.0270594, No Iterations 1
GAMG:  Solving for p, Initial residual = 0.215305, Final residual = 0.0206527, No Iterations 1
time step continuity errors : sum local = 5.56768e-06, global = -2.53067e-07, cumulative = 2.58188e-06
GAMG:  Solving for p, Initial residual = 0.119385, Final residual = 0.00667635, No Iterations 2
GAMG:  Solving for p, Initial residual = 0.136105, Final residual = 4.58325e-07, No Iterations 12
time step continuity errors : sum local = 4.1608e-11, global = -2.41584e-12, cumulative = 2.58188e-06
smoothSolver:  Solving for omega, Initial residual = 0.00118579, Final residual = 5.36578e-09, No Iterations 2
smoothSolver:  Solving for k, Initial residual = 0.0114058, Final residual = 2.4475e-08, No Iterations 2
ExecutionTime = 0.89 s  ClockTime = 1 s

Courant Number mean: 0.0148636 max: 0.498557
deltaT = 4.92082e-05
Time = 0.00105408

PIMPLE: iteration 1
smoothSolver:  Solving for Ux, Initial residual = 1.04522e-06, Final residual = 5.29618e-14, No Iterations 1
smoothSolver:  Solving for Uy, Initial residual = 8.62157e-07, Final residual = 8.62157e-07, No Iterations 0
smoothSolver:  Solving for Uz, Initial residual = 8.19491e-07, Final residual = 8.19491e-07, No Iterations 0
GAMG:  Solving for p, Initial residual = 0.999985, Final residual = 0.0388869, No Iterations 1
GAMG:  Solving for p, Initial residual = 0.0461223, Final residual = 0.00437577, No Iterations 1
time step continuity errors : sum local = 5.29591e-06, global = 2.53234e-07, cumulative = 2.83511e-06
GAMG:  Solving for p, Initial residual = 0.99978, Final residual = 0.0388791, No Iterations 1
GAMG:  Solving for p, Initial residual = 0.0461174, Final residual = 6.54782e-07, No Iterations 11
time step continuity errors : sum local = 7.92476e-10, global = 4.54619e-11, cumulative = 2.83516e-06
PIMPLE: iteration 2
smoothSolver:  Solving for Ux, Initial residual = 0.0537787, Final residual = 4.27026e-08, No Iterations 2
smoothSolver:  Solving for Uy, Initial residual = 0.0435824, Final residual = 2.8981e-08, No Iterations 2
smoothSolver:  Solving for Uz, Initial residual = 0.041471, Final residual = 2.71835e-08, No Iterations 2
GAMG:  Solving for p, Initial residual = 0.694789, Final residual = 0.0271606, No Iterations 1
GAMG:  Solving for p, Initial residual = 0.217888, Final residual = 0.0207313, No Iterations 1
time step continuity errors : sum local = 5.3955e-06, global = -2.48072e-07, cumulative = 2.58708e-06
GAMG:  Solving for p, Initial residual = 0.1191, Final residual = 0.00667575, No Iterations 2
GAMG:  Solving for p, Initial residual = 0.134353, Final residual = 4.5131e-07, No Iterations 12
time step continuity errors : sum local = 4.02102e-11, global = -2.33665e-12, cumulative = 2.58708e-06
smoothSolver:  Solving for omega, Initial residual = 0.00113919, Final residual = 5.24306e-09, No Iterations 2
smoothSolver:  Solving for k, Initial residual = 0.0106608, Final residual = 2.32543e-08, No Iterations 2
ExecutionTime = 0.92 s  ClockTime = 1 s

Courant Number mean: 0.0149054 max: 0.498585
deltaT = 4.93479e-05
Time = 0.00110343

PIMPLE: iteration 1
smoothSolver:  Solving for Ux, Initial residual = 1.03793e-06, Final residual = 5.22624e-14, No Iterations 1
smoothSolver:  Solving for Uy, Initial residual = 8.56094e-07, Final residual = 8.56094e-07, No Iterations 0
smoothSolver:  Solving for Uz, Initial residual = 8.1341e-07, Final residual = 8.1341e-07, No Iterations 0
GAMG:  Solving for p, Initial residual = 0.999985, Final residual = 0.0388243, No Iterations 1
GAMG:  Solving for p, Initial residual = 0.0461167, Final residual = 0.00433518, No Iterations 1
time step continuity errors : sum local = 5.13603e-06, global = 2.47426e-07, cumulative = 2.83451e-06
GAMG:  Solving for p, Initial residual = 0.99978, Final residual = 0.0388165, No Iterations 1
GAMG:  Solving for p, Initial residual = 0.0461119, Final residual = 6.46865e-07, No Iterations 11
time step continuity errors : sum local = 7.66367e-10, global = 4.40277e-11, cumulative = 2.83455e-06
PIMPLE: iteration 2
smoothSolver:  Solving for Ux, Initial residual = 0.0526077, Final residual = 4.19793e-08, No Iterations 2
smoothSolver:  Solving for Uy, Initial residual = 0.0430047, Final residual = 2.87758e-08, No Iterations 2
smoothSolver:  Solving for Uz, Initial residual = 0.0408954, Final residual = 2.69691e-08, No Iterations 2
GAMG:  Solving for p, Initial residual = 0.69843, Final residual = 0.0272601, No Iterations 1
GAMG:  Solving for p, Initial residual = 0.22084, Final residual = 0.0208302, No Iterations 1
time step continuity errors : sum local = 5.23097e-06, global = -2.42132e-07, cumulative = 2.59242e-06
GAMG:  Solving for p, Initial residual = 0.118651, Final residual = 0.00667364, No Iterations 2
GAMG:  Solving for p, Initial residual = 0.132533, Final residual = 4.44183e-07, No Iterations 12
time step continuity errors : sum local = 3.88788e-11, global = -2.26029e-12, cumulative = 2.59242e-06
smoothSolver:  Solving for omega, Initial residual = 0.00109535, Final residual = 5.12069e-09, No Iterations 2
smoothSolver:  Solving for k, Initial residual = 0.00999031, Final residual = 2.21488e-08, No Iterations 2
ExecutionTime = 0.95 s  ClockTime = 1 s

Courant Number mean: 0.0149466 max: 0.498618
deltaT = 4.94847e-05
Time = 0.00115292

PIMPLE: iteration 1
smoothSolver:  Solving for Ux, Initial residual = 1.03061e-06, Final residual = 5.15891e-14, No Iterations 1
smoothSolver:  Solving for Uy, Initial residual = 8.50289e-07, Final residual = 8.50289e-07, No Iterations 0
smoothSolver:  Solving for Uz, Initial residual = 8.07629e-07, Final residual = 8.07629e-07, No Iterations 0
GAMG:  Solving for p, Initial residual = 0.999985, Final residual = 0.0387674, No Iterations 1
GAMG:  Solving for p, Initial residual = 0.0461178, Final residual = 0.00429815, No Iterations 1
time step continuity errors : sum local = 4.98799e-06, global = 2.42128e-07, cumulative = 2.83455e-06
GAMG:  Solving for p, Initial residual = 0.999781, Final residual = 0.0387597, No Iterations 1
GAMG:  Solving for p, Initial residual = 0.046113, Final residual = 6.39451e-07, No Iterations 11
time step continuity errors : sum local = 7.42086e-10, global = 4.26948e-11, cumulative = 2.83459e-06
PIMPLE: iteration 2
smoothSolver:  Solving for Ux, Initial residual = 0.0515267, Final residual = 4.13055e-08, No Iterations 2
smoothSolver:  Solving for Uy, Initial residual = 0.0424744, Final residual = 2.8591e-08, No Iterations 2
smoothSolver:  Solving for Uz, Initial residual = 0.0403631, Final residual = 2.67609e-08, No Iterations 2
GAMG:  Solving for p, Initial residual = 0.70184, Final residual = 0.0273544, No Iterations 1
GAMG:  Solving for p, Initial residual = 0.22369, Final residual = 0.020926, No Iterations 1
time step continuity errors : sum local = 5.07812e-06, global = -2.36689e-07, cumulative = 2.5979e-06
GAMG:  Solving for p, Initial residual = 0.118192, Final residual = 0.00666971, No Iterations 2
GAMG:  Solving for p, Initial residual = 0.130821, Final residual = 4.37468e-07, No Iterations 12
time step continuity errors : sum local = 3.76415e-11, global = -2.1893e-12, cumulative = 2.5979e-06
smoothSolver:  Solving for omega, Initial residual = 0.00105396, Final residual = 4.99506e-09, No Iterations 2
smoothSolver:  Solving for k, Initial residual = 0.00938224, Final residual = 2.11168e-08, No Iterations 2
ExecutionTime = 0.99 s  ClockTime = 1 s

Courant Number mean: 0.014987 max: 0.49866
deltaT = 4.96177e-05
Time = 0.00120253

PIMPLE: iteration 1
smoothSolver:  Solving for Ux, Initial residual = 1.02328e-06, Final residual = 5.09401e-14, No Iterations 1
smoothSolver:  Solving for Uy, Initial residual = 8.44714e-07, Final residual = 8.44714e-07, No Iterations 0
smoothSolver:  Solving for Uz, Initial residual = 8.02074e-07, Final residual = 8.02074e-07, No Iterations 0
GAMG:  Solving for p, Initial residual = 0.999986, Final residual = 0.0387149, No Iterations 1
GAMG:  Solving for p, Initial residual = 0.0461274, Final residual = 0.00426418, No Iterations 1
time step continuity errors : sum local = 4.85015e-06, global = 2.3728e-07, cumulative = 2.83518e-06
GAMG:  Solving for p, Initial residual = 0.999781, Final residual = 0.0387071, No Iterations 1
GAMG:  Solving for p, Initial residual = 0.0461226, Final residual = 6.32508e-07, No Iterations 11
time step continuity errors : sum local = 7.1943e-10, global = 4.14522e-11, cumulative = 2.83522e-06
PIMPLE: iteration 2
smoothSolver:  Solving for Ux, Initial residual = 0.0505303, Final residual = 4.06809e-08, No Iterations 2
smoothSolver:  Solving for Uy, Initial residual = 0.0419848, Final residual = 2.84487e-08, No Iterations 2
smoothSolver:  Solving for Uz, Initial residual = 0.0398706, Final residual = 2.65665e-08, No Iterations 2
GAMG:  Solving for p, Initial residual = 0.705027, Final residual = 0.0274432, No Iterations 1
GAMG:  Solving for p, Initial residual = 0.226451, Final residual = 0.0210176, No Iterations 1
time step continuity errors : sum local = 4.93541e-06, global = -2.31711e-07, cumulative = 2.60351e-06
GAMG:  Solving for p, Initial residual = 0.117736, Final residual = 0.00666429, No Iterations 2
GAMG:  Solving for p, Initial residual = 0.129223, Final residual = 4.31186e-07, No Iterations 12
time step continuity errors : sum local = 3.64872e-11, global = -2.12305e-12, cumulative = 2.60351e-06
smoothSolver:  Solving for omega, Initial residual = 0.00101488, Final residual = 4.86947e-09, No Iterations 2
smoothSolver:  Solving for k, Initial residual = 0.00882947, Final residual = 2.01419e-08, No Iterations 2
ExecutionTime = 1.02 s  ClockTime = 1 s

Courant Number mean: 0.0150263 max: 0.498701
deltaT = 4.97469e-05
Time = 0.00125228

PIMPLE: iteration 1
smoothSolver:  Solving for Ux, Initial residual = 1.0159e-06, Final residual = 5.03117e-14, No Iterations 1
smoothSolver:  Solving for Uy, Initial residual = 8.39369e-07, Final residual = 8.39369e-07, No Iterations 0
smoothSolver:  Solving for Uz, Initial residual = 7.9667e-07, Final residual = 7.9667e-07, No Iterations 0
GAMG:  Solving for p, Initial residual = 0.999986, Final residual = 0.0386647, No Iterations 1
GAMG:  Solving for p, Initial residual = 0.046142, Final residual = 0.00423299, No Iterations 1
time step continuity errors : sum local = 4.72146e-06, global = 2.32842e-07, cumulative = 2.83635e-06
GAMG:  Solving for p, Initial residual = 0.999782, Final residual = 0.038657, No Iterations 1
GAMG:  Solving for p, Initial residual = 0.0461372, Final residual = 6.25985e-07, No Iterations 11
time step continuity errors : sum local = 6.98225e-10, global = 4.02907e-11, cumulative = 2.83639e-06
PIMPLE: iteration 2
smoothSolver:  Solving for Ux, Initial residual = 0.0496075, Final residual = 4.0122e-08, No Iterations 2
smoothSolver:  Solving for Uy, Initial residual = 0.0415346, Final residual = 2.83372e-08, No Iterations 2
smoothSolver:  Solving for Uz, Initial residual = 0.039414, Final residual = 2.63887e-08, No Iterations 2
GAMG:  Solving for p, Initial residual = 0.708041, Final residual = 0.0275277, No Iterations 1
GAMG:  Solving for p, Initial residual = 0.229126, Final residual = 0.0211089, No Iterations 1
time step continuity errors : sum local = 4.80259e-06, global = -2.27141e-07, cumulative = 2.60925e-06
GAMG:  Solving for p, Initial residual = 0.117291, Final residual = 0.00665821, No Iterations 2
GAMG:  Solving for p, Initial residual = 0.127749, Final residual = 4.25374e-07, No Iterations 12
time step continuity errors : sum local = 3.541e-11, global = -2.06119e-12, cumulative = 2.60925e-06
smoothSolver:  Solving for omega, Initial residual = 0.000977907, Final residual = 4.73337e-09, No Iterations 2
smoothSolver:  Solving for k, Initial residual = 0.008325, Final residual = 1.92209e-08, No Iterations 2
ExecutionTime = 1.05 s  ClockTime = 1 s

Courant Number mean: 0.0150644 max: 0.498742
deltaT = 4.98724e-05
Time = 0.00130215

PIMPLE: iteration 1
smoothSolver:  Solving for Ux, Initial residual = 1.00849e-06, Final residual = 4.96918e-14, No Iterations 1
smoothSolver:  Solving for Uy, Initial residual = 8.34226e-07, Final residual = 8.34226e-07, No Iterations 0
smoothSolver:  Solving for Uz, Initial residual = 7.91449e-07, Final residual = 7.91449e-07, No Iterations 0
GAMG:  Solving for p, Initial residual = 0.999986, Final residual = 0.0386174, No Iterations 1
GAMG:  Solving for p, Initial residual = 0.0461623, Final residual = 0.00420415, No Iterations 1
time step continuity errors : sum local = 4.60092e-06, global = 2.28781e-07, cumulative = 2.83803e-06
GAMG:  Solving for p, Initial residual = 0.999782, Final residual = 0.0386097, No Iterations 1
GAMG:  Solving for p, Initial residual = 0.0461574, Final residual = 6.1985e-07, No Iterations 11
time step continuity errors : sum local = 6.78352e-10, global = 3.92033e-11, cumulative = 2.83807e-06
PIMPLE: iteration 2
[...]
smoothSolver:  Solving for omega, Initial residual = 1.90357e-05, Final residual = 1.84614e-08, No Iterations 1
smoothSolver:  Solving for k, Initial residual = 0.000166114, Final residual = 1.75373e-07, No Iterations 1
ExecutionTime = 54.13 s  ClockTime = 56 s

Courant Number mean: 0.0200916 max: 0.499974
deltaT = 6.668e-05
Time = 0.0996374

PIMPLE: iteration 1
smoothSolver:  Solving for Ux, Initial residual = 8.62428e-09, Final residual = 8.62428e-09, No Iterations 0
smoothSolver:  Solving for Uy, Initial residual = 3.08875e-08, Final residual = 3.08875e-08, No Iterations 0
smoothSolver:  Solving for Uz, Initial residual = 2.30684e-08, Final residual = 2.30684e-08, No Iterations 0
GAMG:  Solving for p, Initial residual = 0.999979, Final residual = 0.0445484, No Iterations 1
GAMG:  Solving for p, Initial residual = 0.0541932, Final residual = 0.00205367, No Iterations 2
time step continuity errors : sum local = 2.20413e-07, global = -7.43136e-09, cumulative = 3.29539e-06
GAMG:  Solving for p, Initial residual = 0.999776, Final residual = 0.0445394, No Iterations 1
GAMG:  Solving for p, Initial residual = 0.0541876, Final residual = 7.3238e-07, No Iterations 11
time step continuity errors : sum local = 7.8604e-11, global = -4.7969e-12, cumulative = 3.29539e-06
PIMPLE: iteration 2
smoothSolver:  Solving for Ux, Initial residual = 0.00159179, Final residual = 8.7764e-09, No Iterations 2
smoothSolver:  Solving for Uy, Initial residual = 0.010167, Final residual = 4.96955e-08, No Iterations 2
smoothSolver:  Solving for Uz, Initial residual = 0.00695651, Final residual = 3.69903e-08, No Iterations 2
GAMG:  Solving for p, Initial residual = 0.725689, Final residual = 0.0327021, No Iterations 1
GAMG:  Solving for p, Initial residual = 0.275514, Final residual = 0.010652, No Iterations 2
time step continuity errors : sum local = 2.25602e-07, global = 7.77752e-09, cumulative = 3.30317e-06
GAMG:  Solving for p, Initial residual = 0.118634, Final residual = 0.008809, No Iterations 1
GAMG:  Solving for p, Initial residual = 0.0233639, Final residual = 7.06792e-07, No Iterations 11
time step continuity errors : sum local = 9.60304e-12, global = 6.10032e-13, cumulative = 3.30317e-06
smoothSolver:  Solving for omega, Initial residual = 1.9024e-05, Final residual = 1.84568e-08, No Iterations 1
smoothSolver:  Solving for k, Initial residual = 0.000166033, Final residual = 1.75198e-07, No Iterations 1
ExecutionTime = 54.17 s  ClockTime = 56 s

Courant Number mean: 0.0200926 max: 0.499974
deltaT = 6.66835e-05
Time = 0.0997041

PIMPLE: iteration 1
smoothSolver:  Solving for Ux, Initial residual = 8.62269e-09, Final residual = 8.62269e-09, No Iterations 0
smoothSolver:  Solving for Uy, Initial residual = 3.08702e-08, Final residual = 3.08702e-08, No Iterations 0
smoothSolver:  Solving for Uz, Initial residual = 2.30579e-08, Final residual = 2.30579e-08, No Iterations 0
GAMG:  Solving for p, Initial residual = 0.999979, Final residual = 0.0445486, No Iterations 1
GAMG:  Solving for p, Initial residual = 0.0541945, Final residual = 0.00205363, No Iterations 2
time step continuity errors : sum local = 2.20431e-07, global = -7.43312e-09, cumulative = 3.29573e-06
GAMG:  Solving for p, Initial residual = 0.999776, Final residual = 0.0445397, No Iterations 1
GAMG:  Solving for p, Initial residual = 0.054189, Final residual = 7.32322e-07, No Iterations 11
time step continuity errors : sum local = 7.86056e-11, global = -4.79717e-12, cumulative = 3.29573e-06
PIMPLE: iteration 2
smoothSolver:  Solving for Ux, Initial residual = 0.00159163, Final residual = 8.77486e-09, No Iterations 2
smoothSolver:  Solving for Uy, Initial residual = 0.0101662, Final residual = 4.96861e-08, No Iterations 2
smoothSolver:  Solving for Uz, Initial residual = 0.00695647, Final residual = 3.69872e-08, No Iterations 2
GAMG:  Solving for p, Initial residual = 0.725686, Final residual = 0.032702, No Iterations 1
GAMG:  Solving for p, Initial residual = 0.275517, Final residual = 0.0106517, No Iterations 2
time step continuity errors : sum local = 2.2562e-07, global = 7.77931e-09, cumulative = 3.30351e-06
GAMG:  Solving for p, Initial residual = 0.118637, Final residual = 0.008809, No Iterations 1
GAMG:  Solving for p, Initial residual = 0.0233643, Final residual = 7.06791e-07, No Iterations 11
time step continuity errors : sum local = 9.60373e-12, global = 6.10085e-13, cumulative = 3.30351e-06
smoothSolver:  Solving for omega, Initial residual = 1.90122e-05, Final residual = 1.8452e-08, No Iterations 1
smoothSolver:  Solving for k, Initial residual = 0.000165953, Final residual = 1.75021e-07, No Iterations 1
ExecutionTime = 54.2 s  ClockTime = 56 s

Courant Number mean: 0.0200936 max: 0.499974
deltaT = 6.6687e-05
Time = 0.0997708

PIMPLE: iteration 1
smoothSolver:  Solving for Ux, Initial residual = 8.62023e-09, Final residual = 8.62023e-09, No Iterations 0
smoothSolver:  Solving for Uy, Initial residual = 3.08548e-08, Final residual = 3.08548e-08, No Iterations 0
smoothSolver:  Solving for Uz, Initial residual = 2.30485e-08, Final residual = 2.30485e-08, No Iterations 0
GAMG:  Solving for p, Initial residual = 0.999979, Final residual = 0.0445491, No Iterations 1
GAMG:  Solving for p, Initial residual = 0.0541958, Final residual = 0.00205359, No Iterations 2
time step continuity errors : sum local = 2.20449e-07, global = -7.43478e-09, cumulative = 3.29607e-06
GAMG:  Solving for p, Initial residual = 0.999776, Final residual = 0.0445402, No Iterations 1
GAMG:  Solving for p, Initial residual = 0.0541903, Final residual = 7.32263e-07, No Iterations 11
time step continuity errors : sum local = 7.86073e-11, global = -4.79743e-12, cumulative = 3.29607e-06
PIMPLE: iteration 2
smoothSolver:  Solving for Ux, Initial residual = 0.00159148, Final residual = 8.7733e-09, No Iterations 2
smoothSolver:  Solving for Uy, Initial residual = 0.0101653, Final residual = 4.96768e-08, No Iterations 2
smoothSolver:  Solving for Uz, Initial residual = 0.00695647, Final residual = 3.69841e-08, No Iterations 2
GAMG:  Solving for p, Initial residual = 0.725684, Final residual = 0.0327021, No Iterations 1
GAMG:  Solving for p, Initial residual = 0.275521, Final residual = 0.0106514, No Iterations 2
time step continuity errors : sum local = 2.25638e-07, global = 7.78123e-09, cumulative = 3.30385e-06
GAMG:  Solving for p, Initial residual = 0.118641, Final residual = 0.00880904, No Iterations 1
GAMG:  Solving for p, Initial residual = 0.0233649, Final residual = 7.06792e-07, No Iterations 11
time step continuity errors : sum local = 9.60442e-12, global = 6.10138e-13, cumulative = 3.30385e-06
smoothSolver:  Solving for omega, Initial residual = 1.90006e-05, Final residual = 1.84475e-08, No Iterations 1
smoothSolver:  Solving for k, Initial residual = 0.000165871, Final residual = 1.74836e-07, No Iterations 1
ExecutionTime = 54.23 s  ClockTime = 56 s

Courant Number mean: 0.0200946 max: 0.499974
deltaT = 6.66905e-05
Time = 0.0998375

PIMPLE: iteration 1
smoothSolver:  Solving for Ux, Initial residual = 8.61668e-09, Final residual = 8.61668e-09, No Iterations 0
smoothSolver:  Solving for Uy, Initial residual = 3.08399e-08, Final residual = 3.08399e-08, No Iterations 0
smoothSolver:  Solving for Uz, Initial residual = 2.30408e-08, Final residual = 2.30408e-08, No Iterations 0
GAMG:  Solving for p, Initial residual = 0.999979, Final residual = 0.0445496, No Iterations 1
GAMG:  Solving for p, Initial residual = 0.054197, Final residual = 0.00205356, No Iterations 2
time step continuity errors : sum local = 2.20468e-07, global = -7.43641e-09, cumulative = 3.29642e-06
GAMG:  Solving for p, Initial residual = 0.999776, Final residual = 0.0445406, No Iterations 1
GAMG:  Solving for p, Initial residual = 0.0541915, Final residual = 7.32204e-07, No Iterations 11
time step continuity errors : sum local = 7.8609e-11, global = -4.7977e-12, cumulative = 3.29641e-06
PIMPLE: iteration 2
smoothSolver:  Solving for Ux, Initial residual = 0.00159134, Final residual = 8.77172e-09, No Iterations 2
smoothSolver:  Solving for Uy, Initial residual = 0.0101644, Final residual = 4.96674e-08, No Iterations 2
smoothSolver:  Solving for Uz, Initial residual = 0.00695648, Final residual = 3.69808e-08, No Iterations 2
GAMG:  Solving for p, Initial residual = 0.725679, Final residual = 0.0327023, No Iterations 1
GAMG:  Solving for p, Initial residual = 0.275523, Final residual = 0.010651, No Iterations 2
time step continuity errors : sum local = 2.25657e-07, global = 7.78279e-09, cumulative = 3.30419e-06
GAMG:  Solving for p, Initial residual = 0.118643, Final residual = 0.00880897, No Iterations 1
GAMG:  Solving for p, Initial residual = 0.023365, Final residual = 7.06782e-07, No Iterations 11
time step continuity errors : sum local = 9.60506e-12, global = 6.10188e-13, cumulative = 3.30419e-06
smoothSolver:  Solving for omega, Initial residual = 1.8989e-05, Final residual = 1.84433e-08, No Iterations 1
smoothSolver:  Solving for k, Initial residual = 0.00016579, Final residual = 1.74649e-07, No Iterations 1
ExecutionTime = 54.27 s  ClockTime = 56 s

Courant Number mean: 0.0200956 max: 0.499974
deltaT = 6.6694e-05
Time = 0.0999042

PIMPLE: iteration 1
smoothSolver:  Solving for Ux, Initial residual = 8.61365e-09, Final residual = 8.61365e-09, No Iterations 0
smoothSolver:  Solving for Uy, Initial residual = 3.0826e-08, Final residual = 3.0826e-08, No Iterations 0
smoothSolver:  Solving for Uz, Initial residual = 2.30325e-08, Final residual = 2.30325e-08, No Iterations 0
GAMG:  Solving for p, Initial residual = 0.999979, Final residual = 0.04455, No Iterations 1
GAMG:  Solving for p, Initial residual = 0.0541981, Final residual = 0.00205352, No Iterations 2
time step continuity errors : sum local = 2.20486e-07, global = -7.43791e-09, cumulative = 3.29676e-06
GAMG:  Solving for p, Initial residual = 0.999776, Final residual = 0.044541, No Iterations 1
GAMG:  Solving for p, Initial residual = 0.0541926, Final residual = 7.32143e-07, No Iterations 11
time step continuity errors : sum local = 7.86104e-11, global = -4.79795e-12, cumulative = 3.29675e-06
PIMPLE: iteration 2
smoothSolver:  Solving for Ux, Initial residual = 0.00159119, Final residual = 8.77021e-09, No Iterations 2
smoothSolver:  Solving for Uy, Initial residual = 0.0101635, Final residual = 4.96579e-08, No Iterations 2
smoothSolver:  Solving for Uz, Initial residual = 0.00695649, Final residual = 3.69777e-08, No Iterations 2
GAMG:  Solving for p, Initial residual = 0.725672, Final residual = 0.0327024, No Iterations 1
GAMG:  Solving for p, Initial residual = 0.275522, Final residual = 0.0106505, No Iterations 2
time step continuity errors : sum local = 2.25675e-07, global = 7.78432e-09, cumulative = 3.30454e-06
GAMG:  Solving for p, Initial residual = 0.118644, Final residual = 0.00880877, No Iterations 1
GAMG:  Solving for p, Initial residual = 0.0233648, Final residual = 7.0676e-07, No Iterations 11
time step continuity errors : sum local = 9.6057e-12, global = 6.10238e-13, cumulative = 3.30454e-06
smoothSolver:  Solving for omega, Initial residual = 1.89772e-05, Final residual = 1.8439e-08, No Iterations 1
smoothSolver:  Solving for k, Initial residual = 0.000165708, Final residual = 1.74462e-07, No Iterations 1
ExecutionTime = 54.3 s  ClockTime = 56 s

Courant Number mean: 0.0200967 max: 0.499974
deltaT = 6.66975e-05
Time = 0.0999709

PIMPLE: iteration 1
smoothSolver:  Solving for Ux, Initial residual = 8.61107e-09, Final residual = 8.61107e-09, No Iterations 0
smoothSolver:  Solving for Uy, Initial residual = 3.08139e-08, Final residual = 3.08139e-08, No Iterations 0
smoothSolver:  Solving for Uz, Initial residual = 2.3024e-08, Final residual = 2.3024e-08, No Iterations 0
GAMG:  Solving for p, Initial residual = 0.999979, Final residual = 0.0445506, No Iterations 1
GAMG:  Solving for p, Initial residual = 0.0541994, Final residual = 0.00205347, No Iterations 2
time step continuity errors : sum local = 2.20504e-07, global = -7.43924e-09, cumulative = 3.2971e-06
GAMG:  Solving for p, Initial residual = 0.999776, Final residual = 0.0445416, No Iterations 1
GAMG:  Solving for p, Initial residual = 0.0541939, Final residual = 7.32075e-07, No Iterations 11
time step continuity errors : sum local = 7.86112e-11, global = -4.79817e-12, cumulative = 3.29709e-06
PIMPLE: iteration 2
smoothSolver:  Solving for Ux, Initial residual = 0.00159105, Final residual = 8.7687e-09, No Iterations 2
smoothSolver:  Solving for Uy, Initial residual = 0.0101626, Final residual = 4.96484e-08, No Iterations 2
smoothSolver:  Solving for Uz, Initial residual = 0.0069565, Final residual = 3.69746e-08, No Iterations 2
GAMG:  Solving for p, Initial residual = 0.72567, Final residual = 0.0327026, No Iterations 1
GAMG:  Solving for p, Initial residual = 0.275525, Final residual = 0.0106503, No Iterations 2
time step continuity errors : sum local = 2.25694e-07, global = 7.78588e-09, cumulative = 3.30488e-06
GAMG:  Solving for p, Initial residual = 0.118648, Final residual = 0.00880878, No Iterations 1
GAMG:  Solving for p, Initial residual = 0.0233652, Final residual = 7.06754e-07, No Iterations 11
time step continuity errors : sum local = 9.60632e-12, global = 6.10286e-13, cumulative = 3.30488e-06
smoothSolver:  Solving for omega, Initial residual = 1.89654e-05, Final residual = 1.84343e-08, No Iterations 1
smoothSolver:  Solving for k, Initial residual = 0.000165625, Final residual = 1.74269e-07, No Iterations 1
ExecutionTime = 54.33 s  ClockTime = 56 s

End

Finalising parallel run
[SOLVER] completed (exit code: 0)
[SOLVER] Reconstructing parallel results...
[RECONSTRUCT] Running: reconstructPar
/*---------------------------------------------------------------------------*\
| =========                 |                                                 |
| \\      /  F ield         | OpenFOAM: The Open Source CFD Toolbox           |
|  \\    /   O peration     | Version:  2506                                  |
|   \\  /    A nd           | Website:  www.openfoam.com                      |
|    \\/     M anipulation  |                                                 |
\*---------------------------------------------------------------------------*/
Build  : _615aae61-20250627 OPENFOAM=2506 version=2506
Arch   : "LSB;label=32;scalar=64"
Exec   : reconstructPar
Date   : Jan 23 2026
Time   : 11:59:33
Host   : Vortex-Eclipse
PID    : 146966
I/O    : uncollated
Case   : /home/reen/openfoam/Tutorials/Rotating_Setup_Case/OpenFOAM_GUI/WindTunnelGUI/runs/Run_2_20260123_115820/windTunnelCase
nProcs : 1
trapFpe: Floating point exception trapping enabled (FOAM_SIGFPE).
fileModificationChecking : Monitoring run-time modified files using timeStampMaster (fileModificationSkew 5, maxFileModificationPolls 20)
allowSystemOperations : Allowing user-supplied system call operations

// * * * * * * * * * * * * * * * * * * * * * * * * * * * * * * * * * * * * * //
Create time



Reconstructing fields
region=region0

Time = 0.00481869

Reconstructing FV fields

    Reconstructing volScalarFields

        k
        nut
        omega
        p

    Reconstructing volVectorFields

        U

    Reconstructing surfaceScalarFields

        phi

Reconstructing point fields

No point fields

No lagrangian fields

No FA fields

Time = 0.0100403

Reconstructing FV fields

    Reconstructing volScalarFields

        k
        nut
        omega
        p

    Reconstructing volVectorFields

        U

    Reconstructing surfaceScalarFields

        phi

Reconstructing point fields

No point fields

No lagrangian fields

No FA fields

Time = 0.0153583

Reconstructing FV fields

    Reconstructing volScalarFields

        k
        nut
        omega
        p

    Reconstructing volVectorFields

        U

    Reconstructing surfaceScalarFields

        phi

Reconstructing point fields

No point fields

No lagrangian fields

No FA fields

Time = 0.0207985

Reconstructing FV fields

    Reconstructing volScalarFields

        k
        nut
        omega
        p

    Reconstructing volVectorFields

        U

    Reconstructing surfaceScalarFields

        phi

Reconstructing point fields

No point fields

No lagrangian fields

No FA fields

Time = 0.0263776

Reconstructing FV fields

    Reconstructing volScalarFields

        k
        nut
        omega
        p

    Reconstructing volVectorFields

        U

    Reconstructing surfaceScalarFields

        phi

Reconstructing point fields

No point fields

No lagrangian fields

No FA fields

Time = 0.0321323

Reconstructing FV fields

    Reconstructing volScalarFields

        k
        nut
        omega
        p

    Reconstructing volVectorFields

        U

    Reconstructing surfaceScalarFields

        phi

Reconstructing point fields

No point fields

No lagrangian fields

No FA fields

Time = 0.0380715

Reconstructing FV fields

    Reconstructing volScalarFields

        k
        nut
        omega
        p

    Reconstructing volVectorFields

        U

    Reconstructing surfaceScalarFields

        phi

Reconstructing point fields

No point fields

No lagrangian fields

No FA fields

Time = 0.0440977

Reconstructing FV fields

    Reconstructing volScalarFields

        k
        nut
        omega
        p

    Reconstructing volVectorFields

        U

    Reconstructing surfaceScalarFields

        phi

Reconstructing point fields

No point fields

No lagrangian fields

No FA fields

Time = 0.0501956

Reconstructing FV fields

    Reconstructing volScalarFields

        k
        nut
        omega
        p

    Reconstructing volVectorFields

        U

    Reconstructing surfaceScalarFields

        phi

Reconstructing point fields

No point fields

No lagrangian fields

No FA fields

Time = 0.0563653

Reconstructing FV fields

    Reconstructing volScalarFields

        k
        nut
        omega
        p

    Reconstructing volVectorFields

        U

    Reconstructing surfaceScalarFields

        phi

Reconstructing point fields

No point fields

No lagrangian fields

No FA fields

Time = 0.0626098

Reconstructing FV fields

    Reconstructing volScalarFields

        k
        nut
        omega
        p

    Reconstructing volVectorFields

        U

    Reconstructing surfaceScalarFields

        phi

Reconstructing point fields

No point fields

No lagrangian fields

No FA fields

Time = 0.0689252

Reconstructing FV fields

    Reconstructing volScalarFields

        k
        nut
        omega
        p

    Reconstructing volVectorFields

        U

    Reconstructing surfaceScalarFields

        phi

Reconstructing point fields

No point fields

No lagrangian fields

No FA fields

Time = 0.075305

Reconstructing FV fields

    Reconstructing volScalarFields

        k
        nut
        omega
        p

    Reconstructing volVectorFields

        U

    Reconstructing surfaceScalarFields

        phi

Reconstructing point fields

No point fields

No lagrangian fields

No FA fields

Time = 0.0817581

Reconstructing FV fields

    Reconstructing volScalarFields

        k
        nut
        omega
        p

    Reconstructing volVectorFields

        U

    Reconstructing surfaceScalarFields

        phi

Reconstructing point fields

No point fields

No lagrangian fields

No FA fields

Time = 0.0882981

Reconstructing FV fields

    Reconstructing volScalarFields

        k
        nut
        omega
        p

    Reconstructing volVectorFields

        U

    Reconstructing surfaceScalarFields

        phi

Reconstructing point fields

No point fields

No lagrangian fields

No FA fields

Time = 0.0949124

Reconstructing FV fields

    Reconstructing volScalarFields

        k
        nut
        omega
        p

    Reconstructing volVectorFields

        U

    Reconstructing surfaceScalarFields

        phi

Reconstructing point fields

No point fields

No lagrangian fields

No FA fields


End

[RECONSTRUCT] completed (exit code: 0)
