[WORKFLOW] Applying settings...
[SETTINGS] Updated controlDict: solver=pimpleFoam, endTime=0.1
[SETTINGS] Updated transportProperties: nu=1.5e-05
[SETTINGS] Updated turbulenceProperties: model=kOmegaSST
[WORKFLOW] Starting solver...
[SOLVER] Decomposing for parallel run...
[DECOMPOSE] Running: decomposePar -force
/*---------------------------------------------------------------------------*\
| =========                 |                                                 |
| \\      /  F ield         | OpenFOAM: The Open Source CFD Toolbox           |
|  \\    /   O peration     | Version:  2506                                  |
|   \\  /    A nd           | Website:  www.openfoam.com                      |
|    \\/     M anipulation  |                                                 |
\*---------------------------------------------------------------------------*/
Build  : _615aae61-20250627 OPENFOAM=2506 version=2506
Arch   : "LSB;label=32;scalar=64"
Exec   : decomposePar -force
Date   : Jan 24 2026
Time   : 00:40:48
Host   : Vortex-Eclipse
PID    : 230039
I/O    : uncollated
Case   : /home/reen/openfoam/Tutorials/Rotating_Setup_Case/OpenFOAM_GUI/WindTunnelGUI/runs/Run_1_20260124_004043/windTunnelCase
nProcs : 1
trapFpe: Floating point exception trapping enabled (FOAM_SIGFPE).
fileModificationChecking : Monitoring run-time modified files using timeStampMaster (fileModificationSkew 5, maxFileModificationPolls 20)
allowSystemOperations : Allowing user-supplied system call operations

// * * * * * * * * * * * * * * * * * * * * * * * * * * * * * * * * * * * * * //
Create time



Decomposing mesh

Create mesh

Calculating distribution of cells
Decomposition method scotch [12] (region region0)

Finished decomposition in 0.12 s

Calculating original mesh data

Distributing cells to processors

Distributing faces to processors

Distributing points to processors

Constructing processor meshes

Processor 0
    Number of cells = 3950
    Number of points = 884
    Number of faces shared with processor 1 = 148
    Number of faces shared with processor 2 = 32
    Number of faces shared with processor 4 = 95
    Number of faces shared with processor 5 = 16
    Number of faces shared with processor 9 = 115
    Number of faces shared with processor 11 = 60
    Number of processor patches = 6
    Number of processor faces = 466
    Number of boundary faces = 296

Processor 1
    Number of cells = 3923
    Number of points = 900
    Number of faces shared with processor 0 = 148
    Number of faces shared with processor 2 = 222
    Number of faces shared with processor 4 = 80
    Number of faces shared with processor 5 = 54
    Number of faces shared with processor 9 = 1
    Number of faces shared with processor 11 = 86
    Number of processor patches = 6
    Number of processor faces = 591
    Number of boundary faces = 245

Processor 2
    Number of cells = 3913
    Number of points = 860
    Number of faces shared with processor 0 = 32
    Number of faces shared with processor 1 = 222
    Number of faces shared with processor 4 = 114
    Number of faces shared with processor 5 = 44
    Number of faces shared with processor 9 = 27
    Number of processor patches = 5
    Number of processor faces = 439
    Number of boundary faces = 265

Processor 3
    Number of cells = 3920
    Number of points = 1023
    Number of faces shared with processor 5 = 143
    Number of faces shared with processor 6 = 55
    Number of faces shared with processor 9 = 2
    Number of processor patches = 3
    Number of processor faces = 200
    Number of boundary faces = 1088

Processor 4
    Number of cells = 3928
    Number of points = 832
    Number of faces shared with processor 0 = 95
    Number of faces shared with processor 1 = 80
    Number of faces shared with processor 2 = 114
    Number of faces shared with processor 5 = 139
    Number of processor patches = 4
    Number of processor faces = 428
    Number of boundary faces = 158

Processor 5
    Number of cells = 3915
    Number of points = 969
    Number of faces shared with processor 0 = 16
    Number of faces shared with processor 1 = 54
    Number of faces shared with processor 2 = 44
    Number of faces shared with processor 3 = 143
    Number of faces shared with processor 4 = 139
    Number of faces shared with processor 6 = 10
    Number of faces shared with processor 9 = 92
    Number of processor patches = 7
    Number of processor faces = 498
    Number of boundary faces = 608

Processor 6
    Number of cells = 3990
    Number of points = 877
    Number of faces shared with processor 3 = 55
    Number of faces shared with processor 5 = 10
    Number of faces shared with processor 7 = 126
    Number of faces shared with processor 8 = 174
    Number of faces shared with processor 9 = 60
    Number of faces shared with processor 10 = 63
    Number of processor patches = 6
    Number of processor faces = 488
    Number of boundary faces = 208

Processor 7
    Number of cells = 3991
    Number of points = 870
    Number of faces shared with processor 6 = 126
    Number of faces shared with processor 8 = 204
    Number of faces shared with processor 9 = 62
    Number of faces shared with processor 10 = 32
    Number of faces shared with processor 11 = 34
    Number of processor patches = 5
    Number of processor faces = 458
    Number of boundary faces = 218

Processor 8
    Number of cells = 3990
    Number of points = 909
    Number of faces shared with processor 6 = 174
    Number of faces shared with processor 7 = 204
    Number of faces shared with processor 10 = 109
    Number of faces shared with processor 11 = 81
    Number of processor patches = 4
    Number of processor faces = 568
    Number of boundary faces = 250

Processor 9
    Number of cells = 3991
    Number of points = 972
    Number of faces shared with processor 0 = 115
    Number of faces shared with processor 1 = 1
    Number of faces shared with processor 2 = 27
    Number of faces shared with processor 3 = 2
    Number of faces shared with processor 5 = 92
    Number of faces shared with processor 6 = 60
    Number of faces shared with processor 7 = 62
    Number of faces shared with processor 10 = 164
    Number of faces shared with processor 11 = 58
    Number of processor patches = 9
    Number of processor faces = 581
    Number of boundary faces = 487

Processor 10
    Number of cells = 3988
    Number of points = 897
    Number of faces shared with processor 6 = 63
    Number of faces shared with processor 7 = 32
    Number of faces shared with processor 8 = 109
    Number of faces shared with processor 9 = 164
    Number of faces shared with processor 11 = 118
    Number of processor patches = 5
    Number of processor faces = 486
    Number of boundary faces = 302

Processor 11
    Number of cells = 3926
    Number of points = 1003
    Number of faces shared with processor 0 = 60
    Number of faces shared with processor 1 = 86
    Number of faces shared with processor 7 = 34
    Number of faces shared with processor 8 = 81
    Number of faces shared with processor 9 = 58
    Number of faces shared with processor 10 = 118
    Number of processor patches = 6
    Number of processor faces = 437
    Number of boundary faces = 773

Number of processor faces = 2820
Max number of cells = 3991 (0.984713% above average 3952.08)
Max number of processor patches = 9 (63.6364% above average 5.5)
Max number of faces between processors = 591 (25.7447% above average 470)

Time = 0

Processor 0: field transfer
Processor 1: field transfer
Processor 2: field transfer
Processor 3: field transfer
Processor 4: field transfer
Processor 5: field transfer
Processor 6: field transfer
Processor 7: field transfer
Processor 8: field transfer
Processor 9: field transfer
Processor 10: field transfer
Processor 11: field transfer

End

[DECOMPOSE] completed (exit code: 0)
[SOLVER] Running pimpleFoam...
[SOLVER] Running: mpirun -np 12 pimpleFoam -parallel
/*---------------------------------------------------------------------------*\
| =========                 |                                                 |
| \\      /  F ield         | OpenFOAM: The Open Source CFD Toolbox           |
|  \\    /   O peration     | Version:  2506                                  |
|   \\  /    A nd           | Website:  www.openfoam.com                      |
|    \\/     M anipulation  |                                                 |
\*---------------------------------------------------------------------------*/
Build  : _615aae61-20250627 OPENFOAM=2506 version=2506
Arch   : "LSB;label=32;scalar=64"
Exec   : pimpleFoam -parallel
Date   : Jan 24 2026
Time   : 00:40:49
Host   : Vortex-Eclipse
PID    : 231520
I/O    : uncollated
Case   : /home/reen/openfoam/Tutorials/Rotating_Setup_Case/OpenFOAM_GUI/WindTunnelGUI/runs/Run_1_20260124_004043/windTunnelCase
nProcs : 12
Hosts  :
(
    (Vortex-Eclipse 12)
)
Pstream initialized with:
    node communication : off [type=host] (12 ranks, 1 nodes)
    topology controls  : none
    consensus exchange : 0 (tuning: 0)
    exchange algorithm : 0
    commsType          : nonBlocking
    polling iterations : 0
trapFpe: Floating point exception trapping enabled (FOAM_SIGFPE).
fileModificationChecking : Monitoring run-time modified files using timeStampMaster (fileModificationSkew 5, maxFileModificationPolls 20)
allowSystemOperations : Allowing user-supplied system call operations

// * * * * * * * * * * * * * * * * * * * * * * * * * * * * * * * * * * * * * //
Create time

Create mesh for time = 0


PIMPLE: no residual control data found. Calculations will employ 2 corrector loops

Reading field p

Reading field U

Reading/calculating face flux field phi

Selecting incompressible transport model Newtonian
Selecting turbulence model type RAS
Selecting RAS turbulence model kOmegaSST
Selecting patchDistMethod meshWave
RAS
{
    RASModel        kOmegaSST;
    turbulence      on;
    printCoeffs     on;
    alphaK1         0.85;
    alphaK2         1;
    alphaOmega1     0.5;
    alphaOmega2     0.856;
    gamma1          0.555556;
    gamma2          0.44;
    beta1           0.075;
    beta2           0.0828;
    betaStar        0.09;
    a1              0.31;
    b1              1;
    c1              10;
    F3              false;
    decayControl    false;
    kInf            0;
    omegaInf        0;
}

No MRF models present

No finite volume options present
Courant Number mean: 1.30588e-05 max: 0.00273856
Courant Number mean: 1.30588e-05 max: 0.00273856

Starting time loop

Courant Number mean: 1.30588e-05 max: 0.00273856
deltaT = 1.2e-05
Time = 1.2e-05

PIMPLE: iteration 1
smoothSolver:  Solving for Ux, Initial residual = 1, Final residual = 1.59557e-16, No Iterations 1
smoothSolver:  Solving for Uy, Initial residual = 0, Final residual = 0, No Iterations 0
smoothSolver:  Solving for Uz, Initial residual = 0, Final residual = 0, No Iterations 0
GAMG:  Solving for p, Initial residual = 1, Final residual = 0.0532665, No Iterations 6
GAMG:  Solving for p, Initial residual = 0.152118, Final residual = 0.00635658, No Iterations 1
time step continuity errors : sum local = 4.38341e-05, global = -1.35096e-07, cumulative = -1.35096e-07
GAMG:  Solving for p, Initial residual = 0.975728, Final residual = 0.0519533, No Iterations 6
GAMG:  Solving for p, Initial residual = 0.152102, Final residual = 8.18528e-07, No Iterations 10
time step continuity errors : sum local = 5.64447e-09, global = 3.39838e-10, cumulative = -1.34756e-07
PIMPLE: iteration 2
smoothSolver:  Solving for Ux, Initial residual = 0.999982, Final residual = 8.9167e-08, No Iterations 2
smoothSolver:  Solving for Uy, Initial residual = 0.999799, Final residual = 9.08401e-08, No Iterations 2
smoothSolver:  Solving for Uz, Initial residual = 0.999799, Final residual = 1.09216e-07, No Iterations 2
GAMG:  Solving for p, Initial residual = 0.0154675, Final residual = 0.000775457, No Iterations 1
GAMG:  Solving for p, Initial residual = 0.00230621, Final residual = 0.000207968, No Iterations 1
time step continuity errors : sum local = 1.6147e-06, global = -1.41872e-07, cumulative = -2.76629e-07
GAMG:  Solving for p, Initial residual = 0.000814642, Final residual = 4.68839e-05, No Iterations 2
GAMG:  Solving for p, Initial residual = 0.000607204, Final residual = 8.44541e-07, No Iterations 5
time step continuity errors : sum local = 6.61566e-09, global = -4.83794e-10, cumulative = -2.77112e-07
smoothSolver:  Solving for omega, Initial residual = 0.00104027, Final residual = 2.57171e-07, No Iterations 1
smoothSolver:  Solving for k, Initial residual = 1, Final residual = 9.16541e-08, No Iterations 2
ExecutionTime = 0.05 s  ClockTime = 0 s

Courant Number mean: 0.00363186 max: 0.176677
deltaT = 1.44e-05
Time = 2.64e-05

PIMPLE: iteration 1
smoothSolver:  Solving for Ux, Initial residual = 0.000387736, Final residual = 6.02244e-12, No Iterations 1
smoothSolver:  Solving for Uy, Initial residual = 5.97364e-05, Final residual = 9.21846e-13, No Iterations 1
smoothSolver:  Solving for Uz, Initial residual = 5.93044e-05, Final residual = 9.11202e-13, No Iterations 1
GAMG:  Solving for p, Initial residual = 0.99879, Final residual = 0.0495221, No Iterations 1
GAMG:  Solving for p, Initial residual = 0.0637573, Final residual = 0.00385115, No Iterations 2
time step continuity errors : sum local = 5.00404e-06, global = 3.76946e-07, cumulative = 9.98335e-08
GAMG:  Solving for p, Initial residual = 0.998688, Final residual = 0.0495173, No Iterations 1
GAMG:  Solving for p, Initial residual = 0.0637495, Final residual = 4.63466e-07, No Iterations 12
time step continuity errors : sum local = 6.02225e-10, global = 4.16479e-11, cumulative = 9.98751e-08
PIMPLE: iteration 2
smoothSolver:  Solving for Ux, Initial residual = 0.86138, Final residual = 5.56518e-08, No Iterations 2
smoothSolver:  Solving for Uy, Initial residual = 0.350281, Final residual = 2.1472e-08, No Iterations 2
smoothSolver:  Solving for Uz, Initial residual = 0.347594, Final residual = 2.92419e-08, No Iterations 2
GAMG:  Solving for p, Initial residual = 0.0412192, Final residual = 0.00315556, No Iterations 3
GAMG:  Solving for p, Initial residual = 0.605387, Final residual = 0.0255317, No Iterations 1
time step continuity errors : sum local = 5.67613e-05, global = 2.69672e-06, cumulative = 2.7966e-06
GAMG:  Solving for p, Initial residual = 0.158277, Final residual = 0.0143211, No Iterations 1
GAMG:  Solving for p, Initial residual = 0.0774039, Final residual = 4.48109e-07, No Iterations 12
time step continuity errors : sum local = 3.0553e-10, global = 2.03073e-11, cumulative = 2.79662e-06
smoothSolver:  Solving for omega, Initial residual = 0.00112871, Final residual = 3.25075e-07, No Iterations 1
smoothSolver:  Solving for k, Initial residual = 0.366891, Final residual = 3.46053e-08, No Iterations 2
ExecutionTime = 0.09 s  ClockTime = 0 s

Courant Number mean: 0.00438592 max: 0.207792
deltaT = 1.728e-05
Time = 4.368e-05

PIMPLE: iteration 1
smoothSolver:  Solving for Ux, Initial residual = 9.49389e-06, Final residual = 2.0016e-13, No Iterations 1
smoothSolver:  Solving for Uy, Initial residual = 7.62914e-06, Final residual = 1.3222e-13, No Iterations 1
smoothSolver:  Solving for Uz, Initial residual = 7.11637e-06, Final residual = 1.17621e-13, No Iterations 1
GAMG:  Solving for p, Initial residual = 0.999864, Final residual = 0.04678, No Iterations 1
GAMG:  Solving for p, Initial residual = 0.0565535, Final residual = 0.0034689, No Iterations 2
time step continuity errors : sum local = 4.31156e-06, global = 3.22598e-07, cumulative = 3.11921e-06
GAMG:  Solving for p, Initial residual = 0.999639, Final residual = 0.0467698, No Iterations 1
GAMG:  Solving for p, Initial residual = 0.0565467, Final residual = 4.16316e-07, No Iterations 12
time step continuity errors : sum local = 5.17459e-10, global = 3.58364e-11, cumulative = 3.11925e-06
PIMPLE: iteration 2
smoothSolver:  Solving for Ux, Initial residual = 0.301809, Final residual = 3.1337e-08, No Iterations 2
smoothSolver:  Solving for Uy, Initial residual = 0.16596, Final residual = 1.25083e-08, No Iterations 2
smoothSolver:  Solving for Uz, Initial residual = 0.1622, Final residual = 1.17799e-08, No Iterations 2
GAMG:  Solving for p, Initial residual = 0.482418, Final residual = 0.0217433, No Iterations 1
GAMG:  Solving for p, Initial residual = 0.124345, Final residual = 0.00681068, No Iterations 2
time step continuity errors : sum local = 5.64327e-06, global = -4.28998e-07, cumulative = 2.69025e-06
GAMG:  Solving for p, Initial residual = 0.178978, Final residual = 0.00940834, No Iterations 1
GAMG:  Solving for p, Initial residual = 0.026, Final residual = 5.13958e-07, No Iterations 11
time step continuity errors : sum local = 1.86629e-10, global = -1.20009e-11, cumulative = 2.69024e-06
smoothSolver:  Solving for omega, Initial residual = 0.00129007, Final residual = 4.5582e-07, No Iterations 1
smoothSolver:  Solving for k, Initial residual = 0.265361, Final residual = 3.83136e-08, No Iterations 2
ExecutionTime = 0.12 s  ClockTime = 0 s

Courant Number mean: 0.00526029 max: 0.241835
deltaT = 2.0736e-05
Time = 6.4416e-05

PIMPLE: iteration 1
smoothSolver:  Solving for Ux, Initial residual = 3.87219e-06, Final residual = 9.4619e-14, No Iterations 1
smoothSolver:  Solving for Uy, Initial residual = 2.61119e-06, Final residual = 6.01154e-14, No Iterations 1
smoothSolver:  Solving for Uz, Initial residual = 2.50483e-06, Final residual = 5.4019e-14, No Iterations 1
GAMG:  Solving for p, Initial residual = 0.999941, Final residual = 0.0452919, No Iterations 1
GAMG:  Solving for p, Initial residual = 0.0541414, Final residual = 0.00324658, No Iterations 2
time step continuity errors : sum local = 4.33061e-06, global = 3.25953e-07, cumulative = 3.01619e-06
GAMG:  Solving for p, Initial residual = 0.999713, Final residual = 0.0452818, No Iterations 1
GAMG:  Solving for p, Initial residual = 0.054135, Final residual = 9.6101e-07, No Iterations 11
time step continuity errors : sum local = 1.28192e-09, global = 7.39043e-11, cumulative = 3.01627e-06
PIMPLE: iteration 2
smoothSolver:  Solving for Ux, Initial residual = 0.225685, Final residual = 3.67347e-08, No Iterations 2
smoothSolver:  Solving for Uy, Initial residual = 0.114292, Final residual = 1.40404e-08, No Iterations 2
smoothSolver:  Solving for Uz, Initial residual = 0.111831, Final residual = 1.29502e-08, No Iterations 2
GAMG:  Solving for p, Initial residual = 0.470342, Final residual = 0.0210864, No Iterations 1
GAMG:  Solving for p, Initial residual = 0.117555, Final residual = 0.00691202, No Iterations 2
time step continuity errors : sum local = 4.80504e-06, global = -3.64619e-07, cumulative = 2.65165e-06
GAMG:  Solving for p, Initial residual = 0.186302, Final residual = 0.00971047, No Iterations 1
GAMG:  Solving for p, Initial residual = 0.0266963, Final residual = 5.27997e-07, No Iterations 11
time step continuity errors : sum local = 1.57859e-10, global = -1.00589e-11, cumulative = 2.65164e-06
smoothSolver:  Solving for omega, Initial residual = 0.00148139, Final residual = 6.41685e-07, No Iterations 1
smoothSolver:  Solving for k, Initial residual = 0.1928, Final residual = 4.28017e-08, No Iterations 2
ExecutionTime = 0.15 s  ClockTime = 0 s

Courant Number mean: 0.00630947 max: 0.281325
deltaT = 2.44214e-05
Time = 8.88374e-05

PIMPLE: iteration 1
smoothSolver:  Solving for Ux, Initial residual = 2.55577e-06, Final residual = 7.57524e-14, No Iterations 1
smoothSolver:  Solving for Uy, Initial residual = 1.76768e-06, Final residual = 4.99321e-14, No Iterations 1
smoothSolver:  Solving for Uz, Initial residual = 1.71996e-06, Final residual = 4.51243e-14, No Iterations 1
GAMG:  Solving for p, Initial residual = 0.999956, Final residual = 0.0441691, No Iterations 1
GAMG:  Solving for p, Initial residual = 0.0524808, Final residual = 0.00307096, No Iterations 2
time step continuity errors : sum local = 4.42064e-06, global = 3.34228e-07, cumulative = 2.98587e-06
GAMG:  Solving for p, Initial residual = 0.999729, Final residual = 0.0441592, No Iterations 1
GAMG:  Solving for p, Initial residual = 0.0524745, Final residual = 9.09871e-07, No Iterations 11
time step continuity errors : sum local = 1.30978e-09, global = 7.53518e-11, cumulative = 2.98594e-06
PIMPLE: iteration 2
smoothSolver:  Solving for Ux, Initial residual = 0.188383, Final residual = 4.4417e-08, No Iterations 2
smoothSolver:  Solving for Uy, Initial residual = 0.0985892, Final residual = 1.75651e-08, No Iterations 2
smoothSolver:  Solving for Uz, Initial residual = 0.0961503, Final residual = 1.59337e-08, No Iterations 2
GAMG:  Solving for p, Initial residual = 0.492824, Final residual = 0.021653, No Iterations 1
GAMG:  Solving for p, Initial residual = 0.123584, Final residual = 0.00711093, No Iterations 2
time step continuity errors : sum local = 4.74686e-06, global = -3.60754e-07, cumulative = 2.62519e-06
GAMG:  Solving for p, Initial residual = 0.197282, Final residual = 0.010282, No Iterations 1
GAMG:  Solving for p, Initial residual = 0.0283907, Final residual = 5.60782e-07, No Iterations 11
time step continuity errors : sum local = 1.54531e-10, global = -9.83837e-12, cumulative = 2.62518e-06
smoothSolver:  Solving for omega, Initial residual = 0.00166973, Final residual = 8.69894e-07, No Iterations 1
smoothSolver:  Solving for k, Initial residual = 0.149406, Final residual = 4.93959e-08, No Iterations 2
ExecutionTime = 0.18 s  ClockTime = 0 s

Courant Number mean: 0.00742791 max: 0.321485
deltaT = 2.82196e-05
Time = 0.000117057

PIMPLE: iteration 1
smoothSolver:  Solving for Ux, Initial residual = 1.89944e-06, Final residual = 6.73412e-14, No Iterations 1
smoothSolver:  Solving for Uy, Initial residual = 1.43876e-06, Final residual = 4.90077e-14, No Iterations 1
smoothSolver:  Solving for Uz, Initial residual = 1.39909e-06, Final residual = 4.385e-14, No Iterations 1
GAMG:  Solving for p, Initial residual = 0.999964, Final residual = 0.0433064, No Iterations 1
GAMG:  Solving for p, Initial residual = 0.0512345, Final residual = 0.00292546, No Iterations 2
time step continuity errors : sum local = 4.51846e-06, global = 3.42806e-07, cumulative = 2.96798e-06
GAMG:  Solving for p, Initial residual = 0.999738, Final residual = 0.0432967, No Iterations 1
GAMG:  Solving for p, Initial residual = 0.0512285, Final residual = 8.6743e-07, No Iterations 11
time step continuity errors : sum local = 1.33979e-09, global = 7.69642e-11, cumulative = 2.96806e-06
PIMPLE: iteration 2
smoothSolver:  Solving for Ux, Initial residual = 0.162515, Final residual = 5.2535e-08, No Iterations 2
smoothSolver:  Solving for Uy, Initial residual = 0.088732, Final residual = 2.17413e-08, No Iterations 2
smoothSolver:  Solving for Uz, Initial residual = 0.0863068, Final residual = 1.94939e-08, No Iterations 2
GAMG:  Solving for p, Initial residual = 0.514351, Final residual = 0.0221971, No Iterations 1
GAMG:  Solving for p, Initial residual = 0.12947, Final residual = 0.00727749, No Iterations 2
time step continuity errors : sum local = 4.77567e-06, global = -3.63548e-07, cumulative = 2.60451e-06
GAMG:  Solving for p, Initial residual = 0.207103, Final residual = 0.0107928, No Iterations 1
GAMG:  Solving for p, Initial residual = 0.0299433, Final residual = 5.8978e-07, No Iterations 11
time step continuity errors : sum local = 1.54214e-10, global = -9.81965e-12, cumulative = 2.6045e-06
smoothSolver:  Solving for omega, Initial residual = 0.0018438, Final residual = 1.66185e-09, No Iterations 2
smoothSolver:  Solving for k, Initial residual = 0.120925, Final residual = 5.72486e-08, No Iterations 2
ExecutionTime = 0.21 s  ClockTime = 0 s

Courant Number mean: 0.00858009 max: 0.364769
deltaT = 3.20878e-05
Time = 0.000149145

PIMPLE: iteration 1
smoothSolver:  Solving for Ux, Initial residual = 1.54487e-06, Final residual = 6.39055e-14, No Iterations 1
smoothSolver:  Solving for Uy, Initial residual = 1.27107e-06, Final residual = 5.06958e-14, No Iterations 1
smoothSolver:  Solving for Uz, Initial residual = 1.23239e-06, Final residual = 4.5462e-14, No Iterations 1
GAMG:  Solving for p, Initial residual = 0.999969, Final residual = 0.0426276, No Iterations 1
GAMG:  Solving for p, Initial residual = 0.0502678, Final residual = 0.00280156, No Iterations 2
time step continuity errors : sum local = 4.60848e-06, global = 3.50539e-07, cumulative = 2.95504e-06
GAMG:  Solving for p, Initial residual = 0.999743, Final residual = 0.0426181, No Iterations 1
GAMG:  Solving for p, Initial residual = 0.050262, Final residual = 8.31178e-07, No Iterations 11
time step continuity errors : sum local = 1.36729e-09, global = 7.84642e-11, cumulative = 2.95512e-06
PIMPLE: iteration 2
smoothSolver:  Solving for Ux, Initial residual = 0.143378, Final residual = 6.09432e-08, No Iterations 2
smoothSolver:  Solving for Uy, Initial residual = 0.0816358, Final residual = 2.64515e-08, No Iterations 2
smoothSolver:  Solving for Uz, Initial residual = 0.0792038, Final residual = 2.35393e-08, No Iterations 2
GAMG:  Solving for p, Initial residual = 0.533573, Final residual = 0.0226943, No Iterations 1
GAMG:  Solving for p, Initial residual = 0.135154, Final residual = 0.00742491, No Iterations 2
time step continuity errors : sum local = 4.82573e-06, global = -3.67911e-07, cumulative = 2.58721e-06
GAMG:  Solving for p, Initial residual = 0.215788, Final residual = 0.0112485, No Iterations 1
GAMG:  Solving for p, Initial residual = 0.0313573, Final residual = 6.15882e-07, No Iterations 11
time step continuity errors : sum local = 1.54633e-10, global = -9.84528e-12, cumulative = 2.5872e-06
smoothSolver:  Solving for omega, Initial residual = 0.00199879, Final residual = 2.52673e-09, No Iterations 2
smoothSolver:  Solving for k, Initial residual = 0.100753, Final residual = 6.63723e-08, No Iterations 2
ExecutionTime = 0.24 s  ClockTime = 0 s

Courant Number mean: 0.00975293 max: 0.407649
deltaT = 3.60235e-05
Time = 0.000185168

PIMPLE: iteration 1
smoothSolver:  Solving for Ux, Initial residual = 1.36009e-06, Final residual = 6.37753e-14, No Iterations 1
smoothSolver:  Solving for Uy, Initial residual = 1.18427e-06, Final residual = 5.40672e-14, No Iterations 1
smoothSolver:  Solving for Uz, Initial residual = 1.14466e-06, Final residual = 4.87899e-14, No Iterations 1
GAMG:  Solving for p, Initial residual = 0.999973, Final residual = 0.0420786, No Iterations 1
GAMG:  Solving for p, Initial residual = 0.0495005, Final residual = 0.00269456, No Iterations 2
time step continuity errors : sum local = 4.68908e-06, global = 3.57358e-07, cumulative = 2.94456e-06
GAMG:  Solving for p, Initial residual = 0.999748, Final residual = 0.0420692, No Iterations 1
GAMG:  Solving for p, Initial residual = 0.0494947, Final residual = 7.99807e-07, No Iterations 11
time step continuity errors : sum local = 1.39185e-09, global = 7.98182e-11, cumulative = 2.94464e-06
PIMPLE: iteration 2
smoothSolver:  Solving for Ux, Initial residual = 0.128642, Final residual = 6.94619e-08, No Iterations 2
smoothSolver:  Solving for Uy, Initial residual = 0.0762224, Final residual = 3.16946e-08, No Iterations 2
smoothSolver:  Solving for Uz, Initial residual = 0.073784, Final residual = 2.8009e-08, No Iterations 2
GAMG:  Solving for p, Initial residual = 0.550736, Final residual = 0.0231444, No Iterations 1
GAMG:  Solving for p, Initial residual = 0.140693, Final residual = 0.00755761, No Iterations 2
time step continuity errors : sum local = 4.88138e-06, global = -3.72675e-07, cumulative = 2.57196e-06
GAMG:  Solving for p, Initial residual = 0.223557, Final residual = 0.0116593, No Iterations 1
GAMG:  Solving for p, Initial residual = 0.0326637, Final residual = 6.39732e-07, No Iterations 11
time step continuity errors : sum local = 1.55273e-10, global = -9.88475e-12, cumulative = 2.57195e-06
smoothSolver:  Solving for omega, Initial residual = 0.00213381, Final residual = 3.69851e-09, No Iterations 2
smoothSolver:  Solving for k, Initial residual = 0.0857376, Final residual = 7.67996e-08, No Iterations 2
ExecutionTime = 0.27 s  ClockTime = 0 s

Courant Number mean: 0.0109457 max: 0.449386
deltaT = 4.00316e-05
Time = 0.0002252

PIMPLE: iteration 1
smoothSolver:  Solving for Ux, Initial residual = 1.27881e-06, Final residual = 6.62129e-14, No Iterations 1
smoothSolver:  Solving for Uy, Initial residual = 1.14543e-06, Final residual = 5.89833e-14, No Iterations 1
smoothSolver:  Solving for Uz, Initial residual = 1.10343e-06, Final residual = 5.34712e-14, No Iterations 1
GAMG:  Solving for p, Initial residual = 0.999975, Final residual = 0.0416221, No Iterations 1
GAMG:  Solving for p, Initial residual = 0.0488985, Final residual = 0.00260142, No Iterations 2
time step continuity errors : sum local = 4.76128e-06, global = 3.63437e-07, cumulative = 2.93539e-06
GAMG:  Solving for p, Initial residual = 0.999752, Final residual = 0.0416129, No Iterations 1
GAMG:  Solving for p, Initial residual = 0.0488928, Final residual = 7.72462e-07, No Iterations 11
time step continuity errors : sum local = 1.41383e-09, global = 8.10385e-11, cumulative = 2.93547e-06
PIMPLE: iteration 2
smoothSolver:  Solving for Ux, Initial residual = 0.116984, Final residual = 7.80862e-08, No Iterations 2
smoothSolver:  Solving for Uy, Initial residual = 0.0719298, Final residual = 3.74561e-08, No Iterations 2
smoothSolver:  Solving for Uz, Initial residual = 0.0694915, Final residual = 3.30043e-08, No Iterations 2
GAMG:  Solving for p, Initial residual = 0.56617, Final residual = 0.0235588, No Iterations 1
GAMG:  Solving for p, Initial residual = 0.146092, Final residual = 0.00767881, No Iterations 2
time step continuity errors : sum local = 4.93725e-06, global = -3.77384e-07, cumulative = 2.55809e-06
GAMG:  Solving for p, Initial residual = 0.230547, Final residual = 0.012031, No Iterations 1
GAMG:  Solving for p, Initial residual = 0.0338734, Final residual = 6.61645e-07, No Iterations 11
time step continuity errors : sum local = 1.55953e-10, global = -9.92609e-12, cumulative = 2.55808e-06
smoothSolver:  Solving for omega, Initial residual = 0.00224871, Final residual = 5.24651e-09, No Iterations 2
smoothSolver:  Solving for k, Initial residual = 0.0741059, Final residual = 8.85386e-08, No Iterations 2
ExecutionTime = 0.3 s  ClockTime = 0 s

Courant Number mean: 0.0121599 max: 0.490073
deltaT = 4.08425e-05
Time = 0.000266042

PIMPLE: iteration 1
smoothSolver:  Solving for Ux, Initial residual = 1.16836e-06, Final residual = 6.10082e-14, No Iterations 1
smoothSolver:  Solving for Uy, Initial residual = 1.05354e-06, Final residual = 5.58969e-14, No Iterations 1
smoothSolver:  Solving for Uz, Initial residual = 1.01243e-06, Final residual = 5.0903e-14, No Iterations 1
GAMG:  Solving for p, Initial residual = 0.999979, Final residual = 0.0412415, No Iterations 1
GAMG:  Solving for p, Initial residual = 0.048421, Final residual = 0.00252017, No Iterations 2
time step continuity errors : sum local = 4.46871e-06, global = 3.41491e-07, cumulative = 2.89957e-06
GAMG:  Solving for p, Initial residual = 0.999757, Final residual = 0.0412325, No Iterations 1
GAMG:  Solving for p, Initial residual = 0.0484154, Final residual = 7.48612e-07, No Iterations 11
time step continuity errors : sum local = 1.32744e-09, global = 7.6069e-11, cumulative = 2.89964e-06
PIMPLE: iteration 2
smoothSolver:  Solving for Ux, Initial residual = 0.107078, Final residual = 7.19652e-08, No Iterations 2
smoothSolver:  Solving for Uy, Initial residual = 0.0677512, Final residual = 3.60832e-08, No Iterations 2
smoothSolver:  Solving for Uz, Initial residual = 0.0653241, Final residual = 3.17391e-08, No Iterations 2
GAMG:  Solving for p, Initial residual = 0.578836, Final residual = 0.0238866, No Iterations 1
GAMG:  Solving for p, Initial residual = 0.150632, Final residual = 0.00775866, No Iterations 2
time step continuity errors : sum local = 4.58894e-06, global = -3.50961e-07, cumulative = 2.54868e-06
GAMG:  Solving for p, Initial residual = 0.234556, Final residual = 0.0122656, No Iterations 1
GAMG:  Solving for p, Initial residual = 0.0346901, Final residual = 6.77929e-07, No Iterations 11
time step continuity errors : sum local = 1.4453e-10, global = -9.20364e-12, cumulative = 2.54867e-06
smoothSolver:  Solving for omega, Initial residual = 0.00217273, Final residual = 5.41932e-09, No Iterations 2
smoothSolver:  Solving for k, Initial residual = 0.0601229, Final residual = 7.74069e-08, No Iterations 2
ExecutionTime = 0.34 s  ClockTime = 0 s

Courant Number mean: 0.0124028 max: 0.491061
deltaT = 4.15859e-05
Time = 0.000307628

PIMPLE: iteration 1
smoothSolver:  Solving for Ux, Initial residual = 1.12958e-06, Final residual = 5.91186e-14, No Iterations 1
smoothSolver:  Solving for Uy, Initial residual = 1.01482e-06, Final residual = 5.47466e-14, No Iterations 1
smoothSolver:  Solving for Uz, Initial residual = 9.73807e-07, Final residual = 9.73807e-07, No Iterations 0
GAMG:  Solving for p, Initial residual = 0.999981, Final residual = 0.0409152, No Iterations 1
GAMG:  Solving for p, Initial residual = 0.0480249, Final residual = 0.0024478, No Iterations 2
time step continuity errors : sum local = 4.21215e-06, global = 3.22115e-07, cumulative = 2.87079e-06
GAMG:  Solving for p, Initial residual = 0.99976, Final residual = 0.0409063, No Iterations 1
GAMG:  Solving for p, Initial residual = 0.0480193, Final residual = 7.27281e-07, No Iterations 11
time step continuity errors : sum local = 1.25152e-09, global = 7.17113e-11, cumulative = 2.87086e-06
PIMPLE: iteration 2
smoothSolver:  Solving for Ux, Initial residual = 0.0995266, Final residual = 6.7178e-08, No Iterations 2
smoothSolver:  Solving for Uy, Initial residual = 0.0646408, Final residual = 3.50342e-08, No Iterations 2
smoothSolver:  Solving for Uz, Initial residual = 0.0622251, Final residual = 3.08796e-08, No Iterations 2
GAMG:  Solving for p, Initial residual = 0.59093, Final residual = 0.0242056, No Iterations 1
GAMG:  Solving for p, Initial residual = 0.155293, Final residual = 0.00784086, No Iterations 2
time step continuity errors : sum local = 4.31818e-06, global = -3.30528e-07, cumulative = 2.54033e-06
GAMG:  Solving for p, Initial residual = 0.238864, Final residual = 0.0125186, No Iterations 1
GAMG:  Solving for p, Initial residual = 0.0356111, Final residual = 6.962e-07, No Iterations 11
time step continuity errors : sum local = 1.35639e-10, global = -8.64106e-12, cumulative = 2.54032e-06
smoothSolver:  Solving for omega, Initial residual = 0.00209713, Final residual = 5.57151e-09, No Iterations 2
smoothSolver:  Solving for k, Initial residual = 0.0501916, Final residual = 6.90853e-08, No Iterations 2
ExecutionTime = 0.37 s  ClockTime = 0 s

Courant Number mean: 0.0126254 max: 0.491393
deltaT = 4.23143e-05
Time = 0.000349943

PIMPLE: iteration 1
smoothSolver:  Solving for Ux, Initial residual = 1.10623e-06, Final residual = 5.79315e-14, No Iterations 1
smoothSolver:  Solving for Uy, Initial residual = 9.86853e-07, Final residual = 9.86853e-07, No Iterations 0
smoothSolver:  Solving for Uz, Initial residual = 9.45545e-07, Final residual = 9.45545e-07, No Iterations 0
GAMG:  Solving for p, Initial residual = 0.999982, Final residual = 0.0406356, No Iterations 1
GAMG:  Solving for p, Initial residual = 0.0477036, Final residual = 0.00238305, No Iterations 2
time step continuity errors : sum local = 3.98911e-06, global = 3.05194e-07, cumulative = 2.84552e-06
GAMG:  Solving for p, Initial residual = 0.999761, Final residual = 0.0406268, No Iterations 1
GAMG:  Solving for p, Initial residual = 0.0476981, Final residual = 7.08156e-07, No Iterations 11
time step continuity errors : sum local = 1.18544e-09, global = 6.79246e-11, cumulative = 2.84559e-06
PIMPLE: iteration 2
smoothSolver:  Solving for Ux, Initial residual = 0.0931749, Final residual = 6.34757e-08, No Iterations 2
smoothSolver:  Solving for Uy, Initial residual = 0.0619714, Final residual = 3.4187e-08, No Iterations 2
smoothSolver:  Solving for Uz, Initial residual = 0.0595739, Final residual = 3.02845e-08, No Iterations 2
GAMG:  Solving for p, Initial residual = 0.601898, Final residual = 0.0244957, No Iterations 1
GAMG:  Solving for p, Initial residual = 0.159793, Final residual = 0.00791566, No Iterations 2
time step continuity errors : sum local = 4.08437e-06, global = -3.12792e-07, cumulative = 2.53279e-06
GAMG:  Solving for p, Initial residual = 0.242539, Final residual = 0.0127391, No Iterations 1
GAMG:  Solving for p, Initial residual = 0.0364464, Final residual = 7.12739e-07, No Iterations 11
time step continuity errors : sum local = 1.27968e-10, global = -8.1561e-12, cumulative = 2.53279e-06
smoothSolver:  Solving for omega, Initial residual = 0.00202401, Final residual = 5.69961e-09, No Iterations 2
smoothSolver:  Solving for k, Initial residual = 0.0428304, Final residual = 6.28371e-08, No Iterations 2
ExecutionTime = 0.41 s  ClockTime = 0 s

Courant Number mean: 0.0128435 max: 0.491713
deltaT = 4.30274e-05
Time = 0.00039297

PIMPLE: iteration 1
smoothSolver:  Solving for Ux, Initial residual = 1.09254e-06, Final residual = 5.72029e-14, No Iterations 1
smoothSolver:  Solving for Uy, Initial residual = 9.65947e-07, Final residual = 9.65947e-07, No Iterations 0
smoothSolver:  Solving for Uz, Initial residual = 9.24311e-07, Final residual = 9.24311e-07, No Iterations 0
GAMG:  Solving for p, Initial residual = 0.999982, Final residual = 0.0403923, No Iterations 1
GAMG:  Solving for p, Initial residual = 0.0474401, Final residual = 0.00232485, No Iterations 2
time step continuity errors : sum local = 3.79318e-06, global = 2.90272e-07, cumulative = 2.82306e-06
GAMG:  Solving for p, Initial residual = 0.999763, Final residual = 0.0403835, No Iterations 1
GAMG:  Solving for p, Initial residual = 0.0474347, Final residual = 6.90925e-07, No Iterations 11
time step continuity errors : sum local = 1.12732e-09, global = 6.45991e-11, cumulative = 2.82312e-06
PIMPLE: iteration 2
smoothSolver:  Solving for Ux, Initial residual = 0.0877663, Final residual = 6.03622e-08, No Iterations 2
smoothSolver:  Solving for Uy, Initial residual = 0.0596487, Final residual = 3.35427e-08, No Iterations 2
smoothSolver:  Solving for Uz, Initial residual = 0.0572741, Final residual = 3.02458e-08, No Iterations 2
GAMG:  Solving for p, Initial residual = 0.611884, Final residual = 0.024762, No Iterations 1
GAMG:  Solving for p, Initial residual = 0.164151, Final residual = 0.00798448, No Iterations 2
time step continuity errors : sum local = 3.87976e-06, global = -2.97231e-07, cumulative = 2.52589e-06
GAMG:  Solving for p, Initial residual = 0.245656, Final residual = 0.0129319, No Iterations 1
GAMG:  Solving for p, Initial residual = 0.0372054, Final residual = 7.27719e-07, No Iterations 11
time step continuity errors : sum local = 1.21259e-10, global = -7.73193e-12, cumulative = 2.52588e-06
smoothSolver:  Solving for omega, Initial residual = 0.00195306, Final residual = 5.81249e-09, No Iterations 2
smoothSolver:  Solving for k, Initial residual = 0.0371848, Final residual = 5.81262e-08, No Iterations 2
ExecutionTime = 0.44 s  ClockTime = 0 s

Courant Number mean: 0.0130571 max: 0.492022
deltaT = 4.37251e-05
Time = 0.000436695

PIMPLE: iteration 1
smoothSolver:  Solving for Ux, Initial residual = 1.08492e-06, Final residual = 5.67429e-14, No Iterations 1
smoothSolver:  Solving for Uy, Initial residual = 9.50248e-07, Final residual = 9.50248e-07, No Iterations 0
smoothSolver:  Solving for Uz, Initial residual = 9.08239e-07, Final residual = 9.08239e-07, No Iterations 0
GAMG:  Solving for p, Initial residual = 0.999983, Final residual = 0.0401782, No Iterations 1
GAMG:  Solving for p, Initial residual = 0.0472235, Final residual = 0.00227229, No Iterations 2
time step continuity errors : sum local = 3.61945e-06, global = 2.77e-07, cumulative = 2.80288e-06
GAMG:  Solving for p, Initial residual = 0.999765, Final residual = 0.0401695, No Iterations 1
GAMG:  Solving for p, Initial residual = 0.0472181, Final residual = 6.7535e-07, No Iterations 11
time step continuity errors : sum local = 1.07575e-09, global = 6.1653e-11, cumulative = 2.80295e-06
PIMPLE: iteration 2
smoothSolver:  Solving for Ux, Initial residual = 0.0831104, Final residual = 5.75693e-08, No Iterations 2
smoothSolver:  Solving for Uy, Initial residual = 0.0576064, Final residual = 3.30704e-08, No Iterations 2
smoothSolver:  Solving for Uz, Initial residual = 0.0552588, Final residual = 3.0406e-08, No Iterations 2
GAMG:  Solving for p, Initial residual = 0.621006, Final residual = 0.0250078, No Iterations 1
GAMG:  Solving for p, Initial residual = 0.168343, Final residual = 0.00804768, No Iterations 2
time step continuity errors : sum local = 3.69903e-06, global = -2.83441e-07, cumulative = 2.51951e-06
GAMG:  Solving for p, Initial residual = 0.24825, Final residual = 0.0130983, No Iterations 1
GAMG:  Solving for p, Initial residual = 0.0378904, Final residual = 7.41252e-07, No Iterations 11
time step continuity errors : sum local = 1.15338e-10, global = -7.35773e-12, cumulative = 2.5195e-06
smoothSolver:  Solving for omega, Initial residual = 0.00188445, Final residual = 5.92773e-09, No Iterations 2
smoothSolver:  Solving for k, Initial residual = 0.0327174, Final residual = 5.43067e-08, No Iterations 2
ExecutionTime = 0.47 s  ClockTime = 0 s

Courant Number mean: 0.0132662 max: 0.492312
deltaT = 4.44079e-05
Time = 0.000481103

PIMPLE: iteration 1
smoothSolver:  Solving for Ux, Initial residual = 1.08105e-06, Final residual = 5.64605e-14, No Iterations 1
smoothSolver:  Solving for Uy, Initial residual = 9.38167e-07, Final residual = 9.38167e-07, No Iterations 0
smoothSolver:  Solving for Uz, Initial residual = 8.95958e-07, Final residual = 8.95958e-07, No Iterations 0
GAMG:  Solving for p, Initial residual = 0.999983, Final residual = 0.0399882, No Iterations 1
GAMG:  Solving for p, Initial residual = 0.0470425, Final residual = 0.00222467, No Iterations 2
time step continuity errors : sum local = 3.4643e-06, global = 2.6511e-07, cumulative = 2.78461e-06
GAMG:  Solving for p, Initial residual = 0.999766, Final residual = 0.0399796, No Iterations 1
GAMG:  Solving for p, Initial residual = 0.0470372, Final residual = 6.61216e-07, No Iterations 11
time step continuity errors : sum local = 1.02967e-09, global = 5.90243e-11, cumulative = 2.78467e-06
PIMPLE: iteration 2
smoothSolver:  Solving for Ux, Initial residual = 0.0790724, Final residual = 5.61802e-08, No Iterations 2
smoothSolver:  Solving for Uy, Initial residual = 0.0557953, Final residual = 3.27505e-08, No Iterations 2
smoothSolver:  Solving for Uz, Initial residual = 0.0534776, Final residual = 3.06808e-08, No Iterations 2
GAMG:  Solving for p, Initial residual = 0.629384, Final residual = 0.0252343, No Iterations 1
GAMG:  Solving for p, Initial residual = 0.172384, Final residual = 0.00810594, No Iterations 2
time step continuity errors : sum local = 3.53804e-06, global = -2.71117e-07, cumulative = 2.51355e-06
GAMG:  Solving for p, Initial residual = 0.250434, Final residual = 0.0132444, No Iterations 1
GAMG:  Solving for p, Initial residual = 0.0385198, Final residual = 7.53629e-07, No Iterations 11
time step continuity errors : sum local = 1.10069e-10, global = -7.02492e-12, cumulative = 2.51354e-06
smoothSolver:  Solving for omega, Initial residual = 0.00181813, Final residual = 6.04565e-09, No Iterations 2
smoothSolver:  Solving for k, Initial residual = 0.0291014, Final residual = 5.11582e-08, No Iterations 2
ExecutionTime = 0.51 s  ClockTime = 0 s

Courant Number mean: 0.0134709 max: 0.492573
deltaT = 4.50774e-05
Time = 0.000526181

PIMPLE: iteration 1
smoothSolver:  Solving for Ux, Initial residual = 1.07963e-06, Final residual = 5.62983e-14, No Iterations 1
smoothSolver:  Solving for Uy, Initial residual = 9.28842e-07, Final residual = 9.28842e-07, No Iterations 0
smoothSolver:  Solving for Uz, Initial residual = 8.86433e-07, Final residual = 8.86433e-07, No Iterations 0
GAMG:  Solving for p, Initial residual = 0.999983, Final residual = 0.0398207, No Iterations 1
GAMG:  Solving for p, Initial residual = 0.0468889, Final residual = 0.00218138, No Iterations 2
time step continuity errors : sum local = 3.32495e-06, global = 2.54394e-07, cumulative = 2.76794e-06
GAMG:  Solving for p, Initial residual = 0.999768, Final residual = 0.0398122, No Iterations 1
GAMG:  Solving for p, Initial residual = 0.0468836, Final residual = 6.48352e-07, No Iterations 11
time step continuity errors : sum local = 9.88258e-10, global = 5.6665e-11, cumulative = 2.76799e-06
PIMPLE: iteration 2
smoothSolver:  Solving for Ux, Initial residual = 0.0755382, Final residual = 5.68347e-08, No Iterations 2
smoothSolver:  Solving for Uy, Initial residual = 0.0541795, Final residual = 3.25399e-08, No Iterations 2
smoothSolver:  Solving for Uz, Initial residual = 0.0518906, Final residual = 3.1007e-08, No Iterations 2
GAMG:  Solving for p, Initial residual = 0.637091, Final residual = 0.0254413, No Iterations 1
GAMG:  Solving for p, Initial residual = 0.176264, Final residual = 0.00816001, No Iterations 2
time step continuity errors : sum local = 3.39374e-06, global = -2.60066e-07, cumulative = 2.50793e-06
GAMG:  Solving for p, Initial residual = 0.252275, Final residual = 0.0133732, No Iterations 1
GAMG:  Solving for p, Initial residual = 0.0390981, Final residual = 7.64958e-07, No Iterations 11
time step continuity errors : sum local = 1.05355e-10, global = -6.72718e-12, cumulative = 2.50792e-06
smoothSolver:  Solving for omega, Initial residual = 0.00175424, Final residual = 6.17289e-09, No Iterations 2
smoothSolver:  Solving for k, Initial residual = 0.0261182, Final residual = 4.84747e-08, No Iterations 2
ExecutionTime = 0.53 s  ClockTime = 0 s

Courant Number mean: 0.0136716 max: 0.492836
deltaT = 4.57327e-05
Time = 0.000571913

PIMPLE: iteration 1
smoothSolver:  Solving for Ux, Initial residual = 1.07957e-06, Final residual = 5.6191e-14, No Iterations 1
smoothSolver:  Solving for Uy, Initial residual = 9.21871e-07, Final residual = 9.21871e-07, No Iterations 0
smoothSolver:  Solving for Uz, Initial residual = 8.7901e-07, Final residual = 8.7901e-07, No Iterations 0
GAMG:  Solving for p, Initial residual = 0.999984, Final residual = 0.0396721, No Iterations 1
GAMG:  Solving for p, Initial residual = 0.0467628, Final residual = 0.00214192, No Iterations 2
time step continuity errors : sum local = 3.19898e-06, global = 2.44686e-07, cumulative = 2.75261e-06
GAMG:  Solving for p, Initial residual = 0.999768, Final residual = 0.0396636, No Iterations 1
GAMG:  Solving for p, Initial residual = 0.0467575, Final residual = 6.36613e-07, No Iterations 11
time step continuity errors : sum local = 9.508e-10, global = 5.45343e-11, cumulative = 2.75266e-06
PIMPLE: iteration 2
smoothSolver:  Solving for Ux, Initial residual = 0.0724274, Final residual = 5.76086e-08, No Iterations 2
smoothSolver:  Solving for Uy, Initial residual = 0.05273, Final residual = 3.24176e-08, No Iterations 2
smoothSolver:  Solving for Uz, Initial residual = 0.0504685, Final residual = 3.13939e-08, No Iterations 2
GAMG:  Solving for p, Initial residual = 0.644166, Final residual = 0.0256319, No Iterations 1
GAMG:  Solving for p, Initial residual = 0.179986, Final residual = 0.00821008, No Iterations 2
time step continuity errors : sum local = 3.26349e-06, global = -2.50071e-07, cumulative = 2.50259e-06
GAMG:  Solving for p, Initial residual = 0.253763, Final residual = 0.0134837, No Iterations 1
GAMG:  Solving for p, Initial residual = 0.0396241, Final residual = 7.75182e-07, No Iterations 11
time step continuity errors : sum local = 1.0111e-10, global = -6.45912e-12, cumulative = 2.50259e-06
smoothSolver:  Solving for omega, Initial residual = 0.00169258, Final residual = 6.30501e-09, No Iterations 2
smoothSolver:  Solving for k, Initial residual = 0.0236179, Final residual = 4.61465e-08, No Iterations 2
ExecutionTime = 0.57 s  ClockTime = 0 s

Courant Number mean: 0.0138681 max: 0.493232
deltaT = 4.63602e-05
Time = 0.000618273

PIMPLE: iteration 1
smoothSolver:  Solving for Ux, Initial residual = 1.08035e-06, Final residual = 5.61096e-14, No Iterations 1
smoothSolver:  Solving for Uy, Initial residual = 9.16105e-07, Final residual = 9.16105e-07, No Iterations 0
smoothSolver:  Solving for Uz, Initial residual = 8.73042e-07, Final residual = 8.73042e-07, No Iterations 0
GAMG:  Solving for p, Initial residual = 0.999984, Final residual = 0.0395362, No Iterations 1
GAMG:  Solving for p, Initial residual = 0.0466554, Final residual = 0.0021059, No Iterations 2
time step continuity errors : sum local = 3.08369e-06, global = 2.35788e-07, cumulative = 2.73837e-06
GAMG:  Solving for p, Initial residual = 0.99977, Final residual = 0.0395278, No Iterations 1
GAMG:  Solving for p, Initial residual = 0.0466501, Final residual = 6.25883e-07, No Iterations 11
time step continuity errors : sum local = 9.16498e-10, global = 5.25854e-11, cumulative = 2.73843e-06
PIMPLE: iteration 2
smoothSolver:  Solving for Ux, Initial residual = 0.0696728, Final residual = 5.83662e-08, No Iterations 2
smoothSolver:  Solving for Uy, Initial residual = 0.0514226, Final residual = 3.24026e-08, No Iterations 2
smoothSolver:  Solving for Uz, Initial residual = 0.0491855, Final residual = 3.17951e-08, No Iterations 2
GAMG:  Solving for p, Initial residual = 0.650697, Final residual = 0.0258083, No Iterations 1
GAMG:  Solving for p, Initial residual = 0.183558, Final residual = 0.00825691, No Iterations 2
time step continuity errors : sum local = 3.14427e-06, global = -2.40908e-07, cumulative = 2.49752e-06
GAMG:  Solving for p, Initial residual = 0.254947, Final residual = 0.0135778, No Iterations 1
GAMG:  Solving for p, Initial residual = 0.040102, Final residual = 7.84408e-07, No Iterations 11
time step continuity errors : sum local = 9.72343e-11, global = -6.21454e-12, cumulative = 2.49751e-06
smoothSolver:  Solving for omega, Initial residual = 0.0016322, Final residual = 6.43238e-09, No Iterations 2
smoothSolver:  Solving for k, Initial residual = 0.0214892, Final residual = 4.41251e-08, No Iterations 2
ExecutionTime = 0.61 s  ClockTime = 0 s

Courant Number mean: 0.0140563 max: 0.49366
deltaT = 4.69556e-05
Time = 0.000665229

PIMPLE: iteration 1
smoothSolver:  Solving for Ux, Initial residual = 1.08099e-06, Final residual = 5.59892e-14, No Iterations 1
smoothSolver:  Solving for Uy, Initial residual = 9.11437e-07, Final residual = 9.11437e-07, No Iterations 0
smoothSolver:  Solving for Uz, Initial residual = 8.68004e-07, Final residual = 8.68004e-07, No Iterations 0
GAMG:  Solving for p, Initial residual = 0.999984, Final residual = 0.0394106, No Iterations 1
GAMG:  Solving for p, Initial residual = 0.0465669, Final residual = 0.00207298, No Iterations 2
time step continuity errors : sum local = 2.97735e-06, global = 2.2757e-07, cumulative = 2.72508e-06
GAMG:  Solving for p, Initial residual = 0.99977, Final residual = 0.0394022, No Iterations 1
GAMG:  Solving for p, Initial residual = 0.0465617, Final residual = 6.16069e-07, No Iterations 11
time step continuity errors : sum local = 8.84846e-10, global = 5.07891e-11, cumulative = 2.72513e-06
PIMPLE: iteration 2
smoothSolver:  Solving for Ux, Initial residual = 0.0672172, Final residual = 5.91004e-08, No Iterations 2
smoothSolver:  Solving for Uy, Initial residual = 0.0502374, Final residual = 3.24667e-08, No Iterations 2
smoothSolver:  Solving for Uz, Initial residual = 0.0480248, Final residual = 3.22132e-08, No Iterations 2
GAMG:  Solving for p, Initial residual = 0.656726, Final residual = 0.0259712, No Iterations 1
GAMG:  Solving for p, Initial residual = 0.186979, Final residual = 0.00830038, No Iterations 2
time step continuity errors : sum local = 3.0344e-06, global = -2.32454e-07, cumulative = 2.49268e-06
GAMG:  Solving for p, Initial residual = 0.255853, Final residual = 0.0136579, No Iterations 1
GAMG:  Solving for p, Initial residual = 0.0405348, Final residual = 7.92739e-07, No Iterations 11
time step continuity errors : sum local = 9.36759e-11, global = -5.9901e-12, cumulative = 2.49267e-06
smoothSolver:  Solving for omega, Initial residual = 0.00157319, Final residual = 6.54825e-09, No Iterations 2
smoothSolver:  Solving for k, Initial residual = 0.0196537, Final residual = 4.2241e-08, No Iterations 2
ExecutionTime = 0.64 s  ClockTime = 1 s

Courant Number mean: 0.0142348 max: 0.494014
deltaT = 4.75246e-05
Time = 0.000712754

PIMPLE: iteration 1
smoothSolver:  Solving for Ux, Initial residual = 1.08145e-06, Final residual = 5.58397e-14, No Iterations 1
smoothSolver:  Solving for Uy, Initial residual = 9.07493e-07, Final residual = 9.07493e-07, No Iterations 0
smoothSolver:  Solving for Uz, Initial residual = 8.63896e-07, Final residual = 8.63896e-07, No Iterations 0
GAMG:  Solving for p, Initial residual = 0.999984, Final residual = 0.0392948, No Iterations 1
GAMG:  Solving for p, Initial residual = 0.0464941, Final residual = 0.00204277, No Iterations 2
time step continuity errors : sum local = 2.87916e-06, global = 2.1997e-07, cumulative = 2.71264e-06
GAMG:  Solving for p, Initial residual = 0.999771, Final residual = 0.0392864, No Iterations 1
GAMG:  Solving for p, Initial residual = 0.0464889, Final residual = 6.07059e-07, No Iterations 11
time step continuity errors : sum local = 8.55619e-10, global = 4.91325e-11, cumulative = 2.71269e-06
PIMPLE: iteration 2
smoothSolver:  Solving for Ux, Initial residual = 0.0650116, Final residual = 5.98156e-08, No Iterations 2
smoothSolver:  Solving for Uy, Initial residual = 0.0491658, Final residual = 3.26039e-08, No Iterations 2
smoothSolver:  Solving for Uz, Initial residual = 0.0469722, Final residual = 3.26375e-08, No Iterations 2
GAMG:  Solving for p, Initial residual = 0.66234, Final residual = 0.0261217, No Iterations 1
GAMG:  Solving for p, Initial residual = 0.190238, Final residual = 0.00834, No Iterations 2
time step continuity errors : sum local = 2.93302e-06, global = -2.24657e-07, cumulative = 2.48804e-06
GAMG:  Solving for p, Initial residual = 0.25651, Final residual = 0.0137245, No Iterations 1
GAMG:  Solving for p, Initial residual = 0.040928, Final residual = 8.00244e-07, No Iterations 11
time step continuity errors : sum local = 9.0403e-11, global = -5.78369e-12, cumulative = 2.48803e-06
smoothSolver:  Solving for omega, Initial residual = 0.00151609, Final residual = 6.61735e-09, No Iterations 2
smoothSolver:  Solving for k, Initial residual = 0.0180633, Final residual = 4.06096e-08, No Iterations 2
ExecutionTime = 0.67 s  ClockTime = 1 s

Courant Number mean: 0.0144054 max: 0.494375
deltaT = 4.80653e-05
Time = 0.000760819

PIMPLE: iteration 1
smoothSolver:  Solving for Ux, Initial residual = 1.08162e-06, Final residual = 5.5666e-14, No Iterations 1
smoothSolver:  Solving for Uy, Initial residual = 9.04194e-07, Final residual = 9.04194e-07, No Iterations 0
smoothSolver:  Solving for Uz, Initial residual = 8.60362e-07, Final residual = 8.60362e-07, No Iterations 0
GAMG:  Solving for p, Initial residual = 0.999985, Final residual = 0.0391907, No Iterations 1
GAMG:  Solving for p, Initial residual = 0.0464367, Final residual = 0.0020151, No Iterations 2
time step continuity errors : sum local = 2.78799e-06, global = 2.12905e-07, cumulative = 2.70093e-06
GAMG:  Solving for p, Initial residual = 0.999772, Final residual = 0.0391824, No Iterations 1
GAMG:  Solving for p, Initial residual = 0.0464316, Final residual = 5.98797e-07, No Iterations 11
time step continuity errors : sum local = 8.28476e-10, global = 4.75959e-11, cumulative = 2.70098e-06
PIMPLE: iteration 2
smoothSolver:  Solving for Ux, Initial residual = 0.0630273, Final residual = 6.0481e-08, No Iterations 2
smoothSolver:  Solving for Uy, Initial residual = 0.0481902, Final residual = 3.27794e-08, No Iterations 2
smoothSolver:  Solving for Uz, Initial residual = 0.0460144, Final residual = 3.30553e-08, No Iterations 2
GAMG:  Solving for p, Initial residual = 0.667511, Final residual = 0.0262598, No Iterations 1
GAMG:  Solving for p, Initial residual = 0.193353, Final residual = 0.00837682, No Iterations 2
time step continuity errors : sum local = 2.83904e-06, global = -2.17409e-07, cumulative = 2.48357e-06
GAMG:  Solving for p, Initial residual = 0.256937, Final residual = 0.0137796, No Iterations 1
GAMG:  Solving for p, Initial residual = 0.041282, Final residual = 8.06955e-07, No Iterations 11
time step continuity errors : sum local = 8.7378e-11, global = -5.59298e-12, cumulative = 2.48357e-06
smoothSolver:  Solving for omega, Initial residual = 0.00146085, Final residual = 6.66813e-09, No Iterations 2
smoothSolver:  Solving for k, Initial residual = 0.0166697, Final residual = 3.92081e-08, No Iterations 2
ExecutionTime = 0.7 s  ClockTime = 1 s

Courant Number mean: 0.0145675 max: 0.496291
deltaT = 4.84245e-05
Time = 0.000809243

PIMPLE: iteration 1
smoothSolver:  Solving for Ux, Initial residual = 1.07808e-06, Final residual = 5.51022e-14, No Iterations 1
smoothSolver:  Solving for Uy, Initial residual = 8.98473e-07, Final residual = 8.98473e-07, No Iterations 0
smoothSolver:  Solving for Uz, Initial residual = 8.54572e-07, Final residual = 8.54572e-07, No Iterations 0
GAMG:  Solving for p, Initial residual = 0.999985, Final residual = 0.0390984, No Iterations 1
GAMG:  Solving for p, Initial residual = 0.0463962, Final residual = 0.0046275, No Iterations 1
time step continuity errors : sum local = 6.26659e-06, global = 3.12104e-07, cumulative = 2.79567e-06
GAMG:  Solving for p, Initial residual = 0.999778, Final residual = 0.0390905, No Iterations 1
GAMG:  Solving for p, Initial residual = 0.0463913, Final residual = 5.91231e-07, No Iterations 11
time step continuity errors : sum local = 8.00655e-10, global = 4.60211e-11, cumulative = 2.79572e-06
PIMPLE: iteration 2
smoothSolver:  Solving for Ux, Initial residual = 0.061227, Final residual = 6.06395e-08, No Iterations 2
smoothSolver:  Solving for Uy, Initial residual = 0.0472833, Final residual = 3.272e-08, No Iterations 2
smoothSolver:  Solving for Uz, Initial residual = 0.0451253, Final residual = 3.31975e-08, No Iterations 2
GAMG:  Solving for p, Initial residual = 0.672238, Final residual = 0.0263861, No Iterations 1
GAMG:  Solving for p, Initial residual = 0.19633, Final residual = 0.00841036, No Iterations 2
time step continuity errors : sum local = 2.7424e-06, global = -2.09962e-07, cumulative = 2.58575e-06
GAMG:  Solving for p, Initial residual = 0.257152, Final residual = 0.0138241, No Iterations 1
GAMG:  Solving for p, Initial residual = 0.0416026, Final residual = 8.13086e-07, No Iterations 11
time step continuity errors : sum local = 8.4302e-11, global = -5.39899e-12, cumulative = 2.58575e-06
smoothSolver:  Solving for omega, Initial residual = 0.00140327, Final residual = 6.62137e-09, No Iterations 2
smoothSolver:  Solving for k, Initial residual = 0.0153898, Final residual = 3.72034e-08, No Iterations 2
ExecutionTime = 0.73 s  ClockTime = 1 s

Courant Number mean: 0.0146746 max: 0.498675
deltaT = 4.85531e-05
Time = 0.000857797

PIMPLE: iteration 1
smoothSolver:  Solving for Ux, Initial residual = 1.06983e-06, Final residual = 5.411e-14, No Iterations 1
smoothSolver:  Solving for Uy, Initial residual = 8.89566e-07, Final residual = 8.89566e-07, No Iterations 0
smoothSolver:  Solving for Uz, Initial residual = 8.45826e-07, Final residual = 8.45826e-07, No Iterations 0
GAMG:  Solving for p, Initial residual = 0.999985, Final residual = 0.0390146, No Iterations 1
GAMG:  Solving for p, Initial residual = 0.0463679, Final residual = 0.00458006, No Iterations 1
time step continuity errors : sum local = 6.04755e-06, global = 3.01673e-07, cumulative = 2.88742e-06
GAMG:  Solving for p, Initial residual = 0.999779, Final residual = 0.0390067, No Iterations 1
GAMG:  Solving for p, Initial residual = 0.046363, Final residual = 5.84249e-07, No Iterations 11
time step continuity errors : sum local = 7.71453e-10, global = 4.43673e-11, cumulative = 2.88747e-06
PIMPLE: iteration 2
smoothSolver:  Solving for Ux, Initial residual = 0.0595881, Final residual = 6.01751e-08, No Iterations 2
smoothSolver:  Solving for Uy, Initial residual = 0.0464423, Final residual = 3.23416e-08, No Iterations 2
smoothSolver:  Solving for Uz, Initial residual = 0.0442943, Final residual = 3.29783e-08, No Iterations 2
GAMG:  Solving for p, Initial residual = 0.676552, Final residual = 0.0265027, No Iterations 1
GAMG:  Solving for p, Initial residual = 0.199147, Final residual = 0.0197356, No Iterations 1
time step continuity errors : sum local = 6.1757e-06, global = -2.97172e-07, cumulative = 2.5903e-06
GAMG:  Solving for p, Initial residual = 0.119801, Final residual = 0.00626665, No Iterations 2
GAMG:  Solving for p, Initial residual = 0.146851, Final residual = 9.179e-07, No Iterations 11
time step continuity errors : sum local = 8.78651e-11, global = -6.04053e-12, cumulative = 2.59029e-06
smoothSolver:  Solving for omega, Initial residual = 0.00134271, Final residual = 6.46407e-09, No Iterations 2
smoothSolver:  Solving for k, Initial residual = 0.0141953, Final residual = 3.46413e-08, No Iterations 2
ExecutionTime = 0.76 s  ClockTime = 1 s

Courant Number mean: 0.0147122 max: 0.498463
deltaT = 4.87028e-05
Time = 0.000906499

PIMPLE: iteration 1
smoothSolver:  Solving for Ux, Initial residual = 1.06591e-06, Final residual = 5.34169e-14, No Iterations 1
smoothSolver:  Solving for Uy, Initial residual = 8.8159e-07, Final residual = 8.8159e-07, No Iterations 0
smoothSolver:  Solving for Uz, Initial residual = 8.3873e-07, Final residual = 8.3873e-07, No Iterations 0
GAMG:  Solving for p, Initial residual = 0.999985, Final residual = 0.0389261, No Iterations 1
GAMG:  Solving for p, Initial residual = 0.04633, Final residual = 0.00452484, No Iterations 1
time step continuity errors : sum local = 5.82998e-06, global = 2.92093e-07, cumulative = 2.88238e-06
GAMG:  Solving for p, Initial residual = 0.999779, Final residual = 0.0389182, No Iterations 1
GAMG:  Solving for p, Initial residual = 0.0463251, Final residual = 5.7608e-07, No Iterations 11
time step continuity errors : sum local = 7.42249e-10, global = 4.27339e-11, cumulative = 2.88242e-06
PIMPLE: iteration 2
smoothSolver:  Solving for Ux, Initial residual = 0.0579938, Final residual = 5.96712e-08, No Iterations 2
smoothSolver:  Solving for Uy, Initial residual = 0.0456712, Final residual = 3.2053e-08, No Iterations 2
smoothSolver:  Solving for Uz, Initial residual = 0.0435313, Final residual = 3.28239e-08, No Iterations 2
GAMG:  Solving for p, Initial residual = 0.681789, Final residual = 0.0266433, No Iterations 1
GAMG:  Solving for p, Initial residual = 0.202715, Final residual = 0.0198399, No Iterations 1
time step continuity errors : sum local = 5.95091e-06, global = -2.87851e-07, cumulative = 2.59457e-06
GAMG:  Solving for p, Initial residual = 0.119261, Final residual = 0.00627249, No Iterations 2
GAMG:  Solving for p, Initial residual = 0.144529, Final residual = 9.01882e-07, No Iterations 11
time step continuity errors : sum local = 8.45268e-11, global = -5.8118e-12, cumulative = 2.59457e-06
smoothSolver:  Solving for omega, Initial residual = 0.00128654, Final residual = 6.31442e-09, No Iterations 2
smoothSolver:  Solving for k, Initial residual = 0.01315, Final residual = 3.24499e-08, No Iterations 2
ExecutionTime = 0.8 s  ClockTime = 1 s

Courant Number mean: 0.0147562 max: 0.498466
deltaT = 4.88527e-05
Time = 0.000955352

PIMPLE: iteration 1
smoothSolver:  Solving for Ux, Initial residual = 1.05853e-06, Final residual = 5.26073e-14, No Iterations 1
smoothSolver:  Solving for Uy, Initial residual = 8.74391e-07, Final residual = 8.74391e-07, No Iterations 0
smoothSolver:  Solving for Uz, Initial residual = 8.316e-07, Final residual = 8.316e-07, No Iterations 0
GAMG:  Solving for p, Initial residual = 0.999985, Final residual = 0.0388441, No Iterations 1
GAMG:  Solving for p, Initial residual = 0.0462998, Final residual = 0.00447385, No Iterations 1
time step continuity errors : sum local = 5.63031e-06, global = 2.83348e-07, cumulative = 2.87792e-06
GAMG:  Solving for p, Initial residual = 0.999779, Final residual = 0.0388363, No Iterations 1
GAMG:  Solving for p, Initial residual = 0.0462949, Final residual = 5.68455e-07, No Iterations 11
time step continuity errors : sum local = 7.15402e-10, global = 4.12349e-11, cumulative = 2.87796e-06
PIMPLE: iteration 2
smoothSolver:  Solving for Ux, Initial residual = 0.0564884, Final residual = 5.92203e-08, No Iterations 2
smoothSolver:  Solving for Uy, Initial residual = 0.0449244, Final residual = 3.18331e-08, No Iterations 2
smoothSolver:  Solving for Uz, Initial residual = 0.0427935, Final residual = 3.27127e-08, No Iterations 2
GAMG:  Solving for p, Initial residual = 0.686252, Final residual = 0.0267646, No Iterations 1
GAMG:  Solving for p, Initial residual = 0.205809, Final residual = 0.0199409, No Iterations 1
time step continuity errors : sum local = 5.74485e-06, global = -2.78933e-07, cumulative = 2.59902e-06
GAMG:  Solving for p, Initial residual = 0.118895, Final residual = 0.00627876, No Iterations 2
GAMG:  Solving for p, Initial residual = 0.142237, Final residual = 8.86241e-07, No Iterations 11
time step continuity errors : sum local = 8.14296e-11, global = -5.59963e-12, cumulative = 2.59902e-06
smoothSolver:  Solving for omega, Initial residual = 0.00123399, Final residual = 6.16321e-09, No Iterations 2
smoothSolver:  Solving for k, Initial residual = 0.0122239, Final residual = 3.06e-08, No Iterations 2
ExecutionTime = 0.82 s  ClockTime = 1 s

Courant Number mean: 0.0148003 max: 0.498486
deltaT = 4.90011e-05
Time = 0.00100435

PIMPLE: iteration 1
smoothSolver:  Solving for Ux, Initial residual = 1.05135e-06, Final residual = 5.18237e-14, No Iterations 1
smoothSolver:  Solving for Uy, Initial residual = 8.67671e-07, Final residual = 8.67671e-07, No Iterations 0
smoothSolver:  Solving for Uz, Initial residual = 8.24895e-07, Final residual = 8.24895e-07, No Iterations 0
GAMG:  Solving for p, Initial residual = 0.999985, Final residual = 0.0387669, No Iterations 1
GAMG:  Solving for p, Initial residual = 0.0462766, Final residual = 0.00442717, No Iterations 1
time step continuity errors : sum local = 5.44682e-06, global = 2.75369e-07, cumulative = 2.87439e-06
GAMG:  Solving for p, Initial residual = 0.99978, Final residual = 0.0387591, No Iterations 1
GAMG:  Solving for p, Initial residual = 0.0462718, Final residual = 5.61343e-07, No Iterations 11
time step continuity errors : sum local = 6.90634e-10, global = 3.98554e-11, cumulative = 2.87443e-06
PIMPLE: iteration 2
smoothSolver:  Solving for Ux, Initial residual = 0.0551094, Final residual = 5.87921e-08, No Iterations 2
smoothSolver:  Solving for Uy, Initial residual = 0.0442415, Final residual = 3.16342e-08, No Iterations 2
smoothSolver:  Solving for Uz, Initial residual = 0.0421151, Final residual = 3.26148e-08, No Iterations 2
GAMG:  Solving for p, Initial residual = 0.690403, Final residual = 0.0268774, No Iterations 1
GAMG:  Solving for p, Initial residual = 0.208819, Final residual = 0.0200426, No Iterations 1
time step continuity errors : sum local = 5.55559e-06, global = -2.70789e-07, cumulative = 2.60364e-06
GAMG:  Solving for p, Initial residual = 0.118509, Final residual = 0.00628298, No Iterations 2
GAMG:  Solving for p, Initial residual = 0.140066, Final residual = 8.7142e-07, No Iterations 11
time step continuity errors : sum local = 7.85701e-11, global = -5.40373e-12, cumulative = 2.60363e-06
smoothSolver:  Solving for omega, Initial residual = 0.00118461, Final residual = 5.99105e-09, No Iterations 2
smoothSolver:  Solving for k, Initial residual = 0.0113968, Final residual = 2.89725e-08, No Iterations 2
ExecutionTime = 0.85 s  ClockTime = 1 s

Courant Number mean: 0.014844 max: 0.498547
deltaT = 4.91439e-05
Time = 0.0010535

PIMPLE: iteration 1
smoothSolver:  Solving for Ux, Initial residual = 1.04411e-06, Final residual = 5.1076e-14, No Iterations 1
smoothSolver:  Solving for Uy, Initial residual = 8.6126e-07, Final residual = 8.6126e-07, No Iterations 0
smoothSolver:  Solving for Uz, Initial residual = 8.18523e-07, Final residual = 8.18523e-07, No Iterations 0
GAMG:  Solving for p, Initial residual = 0.999985, Final residual = 0.0386988, No Iterations 1
GAMG:  Solving for p, Initial residual = 0.0462629, Final residual = 0.00438439, No Iterations 1
time step continuity errors : sum local = 5.27701e-06, global = 2.68062e-07, cumulative = 2.87169e-06
GAMG:  Solving for p, Initial residual = 0.99978, Final residual = 0.038691, No Iterations 1
GAMG:  Solving for p, Initial residual = 0.046258, Final residual = 5.54716e-07, No Iterations 11
time step continuity errors : sum local = 6.67656e-10, global = 3.85792e-11, cumulative = 2.87173e-06
PIMPLE: iteration 2
smoothSolver:  Solving for Ux, Initial residual = 0.0538381, Final residual = 5.84267e-08, No Iterations 2
smoothSolver:  Solving for Uy, Initial residual = 0.0436139, Final residual = 3.14911e-08, No Iterations 2
smoothSolver:  Solving for Uz, Initial residual = 0.0414906, Final residual = 3.2548e-08, No Iterations 2
GAMG:  Solving for p, Initial residual = 0.69428, Final residual = 0.0269817, No Iterations 1
GAMG:  Solving for p, Initial residual = 0.211758, Final residual = 0.0201441, No Iterations 1
time step continuity errors : sum local = 5.38064e-06, global = -2.63307e-07, cumulative = 2.60843e-06
GAMG:  Solving for p, Initial residual = 0.1181, Final residual = 0.0062856, No Iterations 2
GAMG:  Solving for p, Initial residual = 0.138052, Final residual = 8.57626e-07, No Iterations 11
time step continuity errors : sum local = 7.59212e-11, global = -5.22228e-12, cumulative = 2.60842e-06
smoothSolver:  Solving for omega, Initial residual = 0.00113813, Final residual = 5.81916e-09, No Iterations 2
smoothSolver:  Solving for k, Initial residual = 0.0106534, Final residual = 2.75079e-08, No Iterations 2
ExecutionTime = 0.88 s  ClockTime = 1 s

Courant Number mean: 0.0148861 max: 0.498574
deltaT = 4.92844e-05
Time = 0.00110278

PIMPLE: iteration 1
smoothSolver:  Solving for Ux, Initial residual = 1.03688e-06, Final residual = 5.03796e-14, No Iterations 1
smoothSolver:  Solving for Uy, Initial residual = 8.55209e-07, Final residual = 8.55209e-07, No Iterations 0
smoothSolver:  Solving for Uz, Initial residual = 8.12475e-07, Final residual = 8.12475e-07, No Iterations 0
GAMG:  Solving for p, Initial residual = 0.999985, Final residual = 0.0386356, No Iterations 1
GAMG:  Solving for p, Initial residual = 0.0462591, Final residual = 0.00434539, No Iterations 1
time step continuity errors : sum local = 5.12e-06, global = 2.61373e-07, cumulative = 2.86979e-06
GAMG:  Solving for p, Initial residual = 0.999781, Final residual = 0.0386278, No Iterations 1
GAMG:  Solving for p, Initial residual = 0.0462542, Final residual = 5.48541e-07, No Iterations 11
time step continuity errors : sum local = 6.46327e-10, global = 3.73979e-11, cumulative = 2.86983e-06
PIMPLE: iteration 2
smoothSolver:  Solving for Ux, Initial residual = 0.0526671, Final residual = 5.81073e-08, No Iterations 2
smoothSolver:  Solving for Uy, Initial residual = 0.0430355, Final residual = 3.13833e-08, No Iterations 2
smoothSolver:  Solving for Uz, Initial residual = 0.0409151, Final residual = 3.25088e-08, No Iterations 2
GAMG:  Solving for p, Initial residual = 0.697947, Final residual = 0.0270813, No Iterations 1
GAMG:  Solving for p, Initial residual = 0.214618, Final residual = 0.020244, No Iterations 1
time step continuity errors : sum local = 5.21876e-06, global = -2.56465e-07, cumulative = 2.61337e-06
GAMG:  Solving for p, Initial residual = 0.117683, Final residual = 0.00628666, No Iterations 2
GAMG:  Solving for p, Initial residual = 0.136154, Final residual = 8.44628e-07, No Iterations 11
time step continuity errors : sum local = 7.3465e-11, global = -5.05411e-12, cumulative = 2.61336e-06
smoothSolver:  Solving for omega, Initial residual = 0.0010944, Final residual = 5.65635e-09, No Iterations 2
smoothSolver:  Solving for k, Initial residual = 0.00998386, Final residual = 2.61751e-08, No Iterations 2
ExecutionTime = 0.91 s  ClockTime = 1 s

Courant Number mean: 0.0149276 max: 0.498608
deltaT = 4.9422e-05
Time = 0.0011522

PIMPLE: iteration 1
smoothSolver:  Solving for Ux, Initial residual = 1.02962e-06, Final residual = 4.96985e-14, No Iterations 1
smoothSolver:  Solving for Uy, Initial residual = 8.49417e-07, Final residual = 8.49417e-07, No Iterations 0
smoothSolver:  Solving for Uz, Initial residual = 8.06731e-07, Final residual = 8.06731e-07, No Iterations 0
GAMG:  Solving for p, Initial residual = 0.999985, Final residual = 0.0385774, No Iterations 1
GAMG:  Solving for p, Initial residual = 0.0462648, Final residual = 0.00430981, No Iterations 1
time step continuity errors : sum local = 4.97442e-06, global = 2.55244e-07, cumulative = 2.8686e-06
GAMG:  Solving for p, Initial residual = 0.999781, Final residual = 0.0385696, No Iterations 1
GAMG:  Solving for p, Initial residual = 0.04626, Final residual = 5.4277e-07, No Iterations 11
time step continuity errors : sum local = 6.26475e-10, global = 3.63019e-11, cumulative = 2.86864e-06
PIMPLE: iteration 2
smoothSolver:  Solving for Ux, Initial residual = 0.0515853, Final residual = 5.78145e-08, No Iterations 2
smoothSolver:  Solving for Uy, Initial residual = 0.0425033, Final residual = 3.13019e-08, No Iterations 2
smoothSolver:  Solving for Uz, Initial residual = 0.0403822, Final residual = 3.24748e-08, No Iterations 2
GAMG:  Solving for p, Initial residual = 0.701375, Final residual = 0.0271754, No Iterations 1
GAMG:  Solving for p, Initial residual = 0.217398, Final residual = 0.0203426, No Iterations 1
time step continuity errors : sum local = 5.06856e-06, global = -2.50186e-07, cumulative = 2.61845e-06
GAMG:  Solving for p, Initial residual = 0.117261, Final residual = 0.00628616, No Iterations 2
GAMG:  Solving for p, Initial residual = 0.134377, Final residual = 8.32444e-07, No Iterations 11
time step continuity errors : sum local = 7.11812e-11, global = -4.8978e-12, cumulative = 2.61845e-06
smoothSolver:  Solving for omega, Initial residual = 0.00105312, Final residual = 5.49531e-09, No Iterations 2
smoothSolver:  Solving for k, Initial residual = 0.00937662, Final residual = 2.4996e-08, No Iterations 2
ExecutionTime = 0.95 s  ClockTime = 1 s

Courant Number mean: 0.0149682 max: 0.49865
deltaT = 4.95559e-05
Time = 0.00120176

PIMPLE: iteration 1
smoothSolver:  Solving for Ux, Initial residual = 1.02233e-06, Final residual = 4.90436e-14, No Iterations 1
smoothSolver:  Solving for Uy, Initial residual = 8.43887e-07, Final residual = 8.43887e-07, No Iterations 0
smoothSolver:  Solving for Uz, Initial residual = 8.01191e-07, Final residual = 8.01191e-07, No Iterations 0
GAMG:  Solving for p, Initial residual = 0.999986, Final residual = 0.0385256, No Iterations 1
GAMG:  Solving for p, Initial residual = 0.0462788, Final residual = 0.00427727, No Iterations 1
time step continuity errors : sum local = 4.83893e-06, global = 2.49617e-07, cumulative = 2.86807e-06
GAMG:  Solving for p, Initial residual = 0.999781, Final residual = 0.0385179, No Iterations 1
GAMG:  Solving for p, Initial residual = 0.046274, Final residual = 5.37372e-07, No Iterations 11
time step continuity errors : sum local = 6.07939e-10, global = 3.52817e-11, cumulative = 2.8681e-06
PIMPLE: iteration 2
smoothSolver:  Solving for Ux, Initial residual = 0.0505846, Final residual = 5.75601e-08, No Iterations 2
smoothSolver:  Solving for Uy, Initial residual = 0.0420124, Final residual = 3.12427e-08, No Iterations 2
smoothSolver:  Solving for Uz, Initial residual = 0.0398892, Final residual = 3.24596e-08, No Iterations 2
GAMG:  Solving for p, Initial residual = 0.704602, Final residual = 0.0272636, No Iterations 1
GAMG:  Solving for p, Initial residual = 0.22009, Final residual = 0.0204369, No Iterations 1
time step continuity errors : sum local = 4.92811e-06, global = -2.44394e-07, cumulative = 2.62371e-06
GAMG:  Solving for p, Initial residual = 0.116833, Final residual = 0.00628426, No Iterations 2
GAMG:  Solving for p, Initial residual = 0.132709, Final residual = 8.21017e-07, No Iterations 11
time step continuity errors : sum local = 6.90502e-11, global = -4.752e-12, cumulative = 2.6237e-06
smoothSolver:  Solving for omega, Initial residual = 0.00101413, Final residual = 5.34235e-09, No Iterations 2
smoothSolver:  Solving for k, Initial residual = 0.00882481, Final residual = 2.38989e-08, No Iterations 2
ExecutionTime = 0.98 s  ClockTime = 1 s

Courant Number mean: 0.0150077 max: 0.498691
deltaT = 4.96859e-05
Time = 0.00125145

PIMPLE: iteration 1
smoothSolver:  Solving for Ux, Initial residual = 1.01498e-06, Final residual = 4.83955e-14, No Iterations 1
smoothSolver:  Solving for Uy, Initial residual = 8.38568e-07, Final residual = 8.38568e-07, No Iterations 0
smoothSolver:  Solving for Uz, Initial residual = 7.95825e-07, Final residual = 7.95825e-07, No Iterations 0
GAMG:  Solving for p, Initial residual = 0.999986, Final residual = 0.038476, No Iterations 1
GAMG:  Solving for p, Initial residual = 0.046298, Final residual = 0.00424717, No Iterations 1
time step continuity errors : sum local = 4.71214e-06, global = 2.44432e-07, cumulative = 2.86814e-06
GAMG:  Solving for p, Initial residual = 0.999782, Final residual = 0.0384683, No Iterations 1
GAMG:  Solving for p, Initial residual = 0.0462932, Final residual = 5.32308e-07, No Iterations 11
time step continuity errors : sum local = 5.90588e-10, global = 3.43296e-11, cumulative = 2.86817e-06
PIMPLE: iteration 2
smoothSolver:  Solving for Ux, Initial residual = 0.0496593, Final residual = 5.73327e-08, No Iterations 2
smoothSolver:  Solving for Uy, Initial residual = 0.0415605, Final residual = 3.11896e-08, No Iterations 2
smoothSolver:  Solving for Uz, Initial residual = 0.0394323, Final residual = 3.24789e-08, No Iterations 2
GAMG:  Solving for p, Initial residual = 0.707659, Final residual = 0.027348, No Iterations 1
GAMG:  Solving for p, Initial residual = 0.222703, Final residual = 0.0205303, No Iterations 1
time step continuity errors : sum local = 4.79705e-06, global = -2.3908e-07, cumulative = 2.62909e-06
GAMG:  Solving for p, Initial residual = 0.116411, Final residual = 0.00628161, No Iterations 2
GAMG:  Solving for p, Initial residual = 0.131172, Final residual = 8.10445e-07, No Iterations 11
time step continuity errors : sum local = 6.70597e-11, global = -4.61586e-12, cumulative = 2.62909e-06
smoothSolver:  Solving for omega, Initial residual = 0.000977239, Final residual = 5.18165e-09, No Iterations 2
smoothSolver:  Solving for k, Initial residual = 0.00832102, Final residual = 2.28888e-08, No Iterations 2
ExecutionTime = 1.01 s  ClockTime = 1 s

Courant Number mean: 0.0150461 max: 0.498731
deltaT = 4.98123e-05
Time = 0.00130126

PIMPLE: iteration 1
smoothSolver:  Solving for Ux, Initial residual = 1.00761e-06, Final residual = 4.77861e-14, No Iterations 1
smoothSolver:  Solving for Uy, Initial residual = 8.33435e-07, Final residual = 8.33435e-07, No Iterations 0
smoothSolver:  Solving for Uz, Initial residual = 7.90635e-07, Final residual = 7.90635e-07, No Iterations 0
GAMG:  Solving for p, Initial residual = 0.999986, Final residual = 0.0384282, No Iterations 1
GAMG:  Solving for p, Initial residual = 0.0463216, Final residual = 0.00421945, No Iterations 1
time step continuity errors : sum local = 4.59337e-06, global = 2.39661e-07, cumulative = 2.86875e-06
GAMG:  Solving for p, Initial residual = 0.999782, Final residual = 0.0384205, No Iterations 1
GAMG:  Solving for p, Initial residual = 0.0463168, Final residual = 5.27558e-07, No Iterations 11
time step continuity errors : sum local = 5.74313e-10, global = 3.344e-11, cumulative = 2.86878e-06
PIMPLE: iteration 2
[...]
smoothSolver:  Solving for omega, Initial residual = 1.90429e-05, Final residual = 1.99805e-08, No Iterations 1
smoothSolver:  Solving for k, Initial residual = 0.000166171, Final residual = 1.80705e-07, No Iterations 1
ExecutionTime = 52.49 s  ClockTime = 52 s

Courant Number mean: 0.0200974 max: 0.499974
deltaT = 6.66996e-05
Time = 0.0996994

PIMPLE: iteration 1
smoothSolver:  Solving for Ux, Initial residual = 8.58434e-09, Final residual = 8.58434e-09, No Iterations 0
smoothSolver:  Solving for Uy, Initial residual = 3.07729e-08, Final residual = 3.07729e-08, No Iterations 0
smoothSolver:  Solving for Uz, Initial residual = 2.31278e-08, Final residual = 2.31278e-08, No Iterations 0
GAMG:  Solving for p, Initial residual = 0.999979, Final residual = 0.0447572, No Iterations 1
GAMG:  Solving for p, Initial residual = 0.0538617, Final residual = 0.00202054, No Iterations 2
time step continuity errors : sum local = 2.17299e-07, global = -8.44406e-09, cumulative = 3.20438e-06
GAMG:  Solving for p, Initial residual = 0.999777, Final residual = 0.0447482, No Iterations 1
GAMG:  Solving for p, Initial residual = 0.0538562, Final residual = 6.78945e-07, No Iterations 11
time step continuity errors : sum local = 7.30175e-11, global = -4.5676e-12, cumulative = 3.20438e-06
PIMPLE: iteration 2
smoothSolver:  Solving for Ux, Initial residual = 0.00159565, Final residual = 1.41432e-08, No Iterations 2
smoothSolver:  Solving for Uy, Initial residual = 0.0102082, Final residual = 5.86897e-08, No Iterations 2
smoothSolver:  Solving for Uz, Initial residual = 0.00698859, Final residual = 4.89809e-08, No Iterations 2
GAMG:  Solving for p, Initial residual = 0.724108, Final residual = 0.0327396, No Iterations 1
GAMG:  Solving for p, Initial residual = 0.272383, Final residual = 0.0104048, No Iterations 2
time step continuity errors : sum local = 2.2212e-07, global = 8.79504e-09, cumulative = 3.21318e-06
GAMG:  Solving for p, Initial residual = 0.11711, Final residual = 0.00872089, No Iterations 1
GAMG:  Solving for p, Initial residual = 0.0246186, Final residual = 6.04444e-07, No Iterations 11
time step continuity errors : sum local = 8.33291e-12, global = 5.26199e-13, cumulative = 3.21318e-06
smoothSolver:  Solving for omega, Initial residual = 1.9031e-05, Final residual = 1.99694e-08, No Iterations 1
smoothSolver:  Solving for k, Initial residual = 0.000166089, Final residual = 1.80599e-07, No Iterations 1
ExecutionTime = 52.53 s  ClockTime = 52 s

Courant Number mean: 0.0200984 max: 0.499974
deltaT = 6.6703e-05
Time = 0.0997661

PIMPLE: iteration 1
smoothSolver:  Solving for Ux, Initial residual = 8.57918e-09, Final residual = 8.57918e-09, No Iterations 0
smoothSolver:  Solving for Uy, Initial residual = 3.07528e-08, Final residual = 3.07528e-08, No Iterations 0
smoothSolver:  Solving for Uz, Initial residual = 2.31188e-08, Final residual = 2.31188e-08, No Iterations 0
GAMG:  Solving for p, Initial residual = 0.999979, Final residual = 0.0447569, No Iterations 1
GAMG:  Solving for p, Initial residual = 0.0538621, Final residual = 0.00202053, No Iterations 2
time step continuity errors : sum local = 2.1732e-07, global = -8.44593e-09, cumulative = 3.20473e-06
GAMG:  Solving for p, Initial residual = 0.999777, Final residual = 0.0447479, No Iterations 1
GAMG:  Solving for p, Initial residual = 0.0538566, Final residual = 6.78904e-07, No Iterations 11
time step continuity errors : sum local = 7.30205e-11, global = -4.56786e-12, cumulative = 3.20473e-06
PIMPLE: iteration 2
smoothSolver:  Solving for Ux, Initial residual = 0.00159549, Final residual = 1.4141e-08, No Iterations 2
smoothSolver:  Solving for Uy, Initial residual = 0.0102074, Final residual = 5.86794e-08, No Iterations 2
smoothSolver:  Solving for Uz, Initial residual = 0.00698856, Final residual = 4.89781e-08, No Iterations 2
GAMG:  Solving for p, Initial residual = 0.724109, Final residual = 0.0327396, No Iterations 1
GAMG:  Solving for p, Initial residual = 0.27239, Final residual = 0.0104039, No Iterations 2
time step continuity errors : sum local = 2.2212e-07, global = 8.79152e-09, cumulative = 3.21352e-06
GAMG:  Solving for p, Initial residual = 0.1171, Final residual = 0.00872004, No Iterations 1
GAMG:  Solving for p, Initial residual = 0.0246136, Final residual = 6.04356e-07, No Iterations 11
time step continuity errors : sum local = 8.33333e-12, global = 5.26229e-13, cumulative = 3.21352e-06
smoothSolver:  Solving for omega, Initial residual = 1.90192e-05, Final residual = 1.9958e-08, No Iterations 1
smoothSolver:  Solving for k, Initial residual = 0.000166008, Final residual = 1.80492e-07, No Iterations 1
ExecutionTime = 52.56 s  ClockTime = 52 s

Courant Number mean: 0.0200994 max: 0.499974
deltaT = 6.67065e-05
Time = 0.0998328

PIMPLE: iteration 1
smoothSolver:  Solving for Ux, Initial residual = 8.57827e-09, Final residual = 8.57827e-09, No Iterations 0
smoothSolver:  Solving for Uy, Initial residual = 3.07427e-08, Final residual = 3.07427e-08, No Iterations 0
smoothSolver:  Solving for Uz, Initial residual = 2.31128e-08, Final residual = 2.31128e-08, No Iterations 0
GAMG:  Solving for p, Initial residual = 0.999979, Final residual = 0.0447566, No Iterations 1
GAMG:  Solving for p, Initial residual = 0.0538625, Final residual = 0.00202041, No Iterations 2
time step continuity errors : sum local = 2.17329e-07, global = -8.44451e-09, cumulative = 3.20507e-06
GAMG:  Solving for p, Initial residual = 0.999777, Final residual = 0.0447476, No Iterations 1
GAMG:  Solving for p, Initial residual = 0.053857, Final residual = 6.78867e-07, No Iterations 11
time step continuity errors : sum local = 7.30238e-11, global = -4.56815e-12, cumulative = 3.20507e-06
PIMPLE: iteration 2
smoothSolver:  Solving for Ux, Initial residual = 0.00159535, Final residual = 1.41388e-08, No Iterations 2
smoothSolver:  Solving for Uy, Initial residual = 0.0102065, Final residual = 5.8669e-08, No Iterations 2
smoothSolver:  Solving for Uz, Initial residual = 0.00698852, Final residual = 4.89755e-08, No Iterations 2
GAMG:  Solving for p, Initial residual = 0.724095, Final residual = 0.0327387, No Iterations 1
GAMG:  Solving for p, Initial residual = 0.272375, Final residual = 0.010404, No Iterations 2
time step continuity errors : sum local = 2.22155e-07, global = 8.7966e-09, cumulative = 3.21386e-06
GAMG:  Solving for p, Initial residual = 0.11712, Final residual = 0.00872096, No Iterations 1
GAMG:  Solving for p, Initial residual = 0.0246199, Final residual = 6.04441e-07, No Iterations 11
time step continuity errors : sum local = 8.33399e-12, global = 5.26266e-13, cumulative = 3.21387e-06
smoothSolver:  Solving for omega, Initial residual = 1.90077e-05, Final residual = 1.99464e-08, No Iterations 1
smoothSolver:  Solving for k, Initial residual = 0.000165927, Final residual = 1.80385e-07, No Iterations 1
ExecutionTime = 52.59 s  ClockTime = 52 s

Courant Number mean: 0.0201004 max: 0.499974
deltaT = 6.67099e-05
Time = 0.0998995

PIMPLE: iteration 1
smoothSolver:  Solving for Ux, Initial residual = 8.57212e-09, Final residual = 8.57212e-09, No Iterations 0
smoothSolver:  Solving for Uy, Initial residual = 3.07243e-08, Final residual = 3.07243e-08, No Iterations 0
smoothSolver:  Solving for Uz, Initial residual = 2.31024e-08, Final residual = 2.31024e-08, No Iterations 0
GAMG:  Solving for p, Initial residual = 0.999979, Final residual = 0.0447563, No Iterations 1
GAMG:  Solving for p, Initial residual = 0.0538628, Final residual = 0.00202042, No Iterations 2
time step continuity errors : sum local = 2.17353e-07, global = -8.44707e-09, cumulative = 3.20542e-06
GAMG:  Solving for p, Initial residual = 0.999777, Final residual = 0.0447473, No Iterations 1
GAMG:  Solving for p, Initial residual = 0.0538573, Final residual = 6.78827e-07, No Iterations 11
time step continuity errors : sum local = 7.30269e-11, global = -4.56841e-12, cumulative = 3.20541e-06
PIMPLE: iteration 2
smoothSolver:  Solving for Ux, Initial residual = 0.00159519, Final residual = 1.41366e-08, No Iterations 2
smoothSolver:  Solving for Uy, Initial residual = 0.0102056, Final residual = 5.8659e-08, No Iterations 2
smoothSolver:  Solving for Uz, Initial residual = 0.00698852, Final residual = 4.8973e-08, No Iterations 2
GAMG:  Solving for p, Initial residual = 0.724102, Final residual = 0.032739, No Iterations 1
GAMG:  Solving for p, Initial residual = 0.272387, Final residual = 0.010403, No Iterations 2
time step continuity errors : sum local = 2.22149e-07, global = 8.79193e-09, cumulative = 3.21421e-06
GAMG:  Solving for p, Initial residual = 0.117105, Final residual = 0.00871982, No Iterations 1
GAMG:  Solving for p, Initial residual = 0.024613, Final residual = 6.04324e-07, No Iterations 11
time step continuity errors : sum local = 8.33436e-12, global = 5.26296e-13, cumulative = 3.21421e-06
smoothSolver:  Solving for omega, Initial residual = 1.8996e-05, Final residual = 1.99344e-08, No Iterations 1
smoothSolver:  Solving for k, Initial residual = 0.000165846, Final residual = 1.80277e-07, No Iterations 1
ExecutionTime = 52.63 s  ClockTime = 53 s

Courant Number mean: 0.0201014 max: 0.499975
deltaT = 6.67133e-05
Time = 0.0999662

PIMPLE: iteration 1
smoothSolver:  Solving for Ux, Initial residual = 8.57239e-09, Final residual = 8.57239e-09, No Iterations 0
smoothSolver:  Solving for Uy, Initial residual = 3.07167e-08, Final residual = 3.07167e-08, No Iterations 0
smoothSolver:  Solving for Uz, Initial residual = 2.30969e-08, Final residual = 2.30969e-08, No Iterations 0
GAMG:  Solving for p, Initial residual = 0.999979, Final residual = 0.0447562, No Iterations 1
GAMG:  Solving for p, Initial residual = 0.053863, Final residual = 0.00202029, No Iterations 2
time step continuity errors : sum local = 2.1736e-07, global = -8.44506e-09, cumulative = 3.20576e-06
GAMG:  Solving for p, Initial residual = 0.999777, Final residual = 0.0447472, No Iterations 1
GAMG:  Solving for p, Initial residual = 0.0538576, Final residual = 6.78793e-07, No Iterations 11
time step continuity errors : sum local = 7.30305e-11, global = -4.56871e-12, cumulative = 3.20576e-06
PIMPLE: iteration 2
smoothSolver:  Solving for Ux, Initial residual = 0.00159506, Final residual = 1.41344e-08, No Iterations 2
smoothSolver:  Solving for Uy, Initial residual = 0.0102047, Final residual = 5.86489e-08, No Iterations 2
smoothSolver:  Solving for Uz, Initial residual = 0.00698847, Final residual = 4.89706e-08, No Iterations 2
GAMG:  Solving for p, Initial residual = 0.724083, Final residual = 0.0327379, No Iterations 1
GAMG:  Solving for p, Initial residual = 0.272364, Final residual = 0.0104032, No Iterations 2
time step continuity errors : sum local = 2.22192e-07, global = 8.79854e-09, cumulative = 3.21455e-06
GAMG:  Solving for p, Initial residual = 0.117129, Final residual = 0.00872104, No Iterations 1
GAMG:  Solving for p, Initial residual = 0.0246213, Final residual = 6.04439e-07, No Iterations 11
time step continuity errors : sum local = 8.33507e-12, global = 5.26334e-13, cumulative = 3.21456e-06
smoothSolver:  Solving for omega, Initial residual = 1.89843e-05, Final residual = 1.99228e-08, No Iterations 1
smoothSolver:  Solving for k, Initial residual = 0.000165764, Final residual = 1.80167e-07, No Iterations 1
ExecutionTime = 52.66 s  ClockTime = 53 s

Courant Number mean: 0.0201024 max: 0.499974
deltaT = 6.67168e-05
Time = 0.100033

PIMPLE: iteration 1
smoothSolver:  Solving for Ux, Initial residual = 8.56559e-09, Final residual = 8.56559e-09, No Iterations 0
smoothSolver:  Solving for Uy, Initial residual = 3.06977e-08, Final residual = 3.06977e-08, No Iterations 0
smoothSolver:  Solving for Uz, Initial residual = 2.3085e-08, Final residual = 2.3085e-08, No Iterations 0
GAMG:  Solving for p, Initial residual = 0.999979, Final residual = 0.0447558, No Iterations 1
GAMG:  Solving for p, Initial residual = 0.0538632, Final residual = 0.00202033, No Iterations 2
time step continuity errors : sum local = 2.17386e-07, global = -8.44847e-09, cumulative = 3.20611e-06
GAMG:  Solving for p, Initial residual = 0.999777, Final residual = 0.0447468, No Iterations 1
GAMG:  Solving for p, Initial residual = 0.0538578, Final residual = 6.78748e-07, No Iterations 11
time step continuity errors : sum local = 7.30332e-11, global = -4.56896e-12, cumulative = 3.2061e-06
PIMPLE: iteration 2
smoothSolver:  Solving for Ux, Initial residual = 0.00159489, Final residual = 1.41322e-08, No Iterations 2
smoothSolver:  Solving for Uy, Initial residual = 0.0102038, Final residual = 5.86391e-08, No Iterations 2
smoothSolver:  Solving for Uz, Initial residual = 0.00698846, Final residual = 4.89683e-08, No Iterations 2
GAMG:  Solving for p, Initial residual = 0.724088, Final residual = 0.0327381, No Iterations 1
GAMG:  Solving for p, Initial residual = 0.272374, Final residual = 0.0104017, No Iterations 2
time step continuity errors : sum local = 2.22176e-07, global = 8.79143e-09, cumulative = 3.21489e-06
GAMG:  Solving for p, Initial residual = 0.117102, Final residual = 0.00871908, No Iterations 1
GAMG:  Solving for p, Initial residual = 0.0246102, Final residual = 6.04248e-07, No Iterations 11
time step continuity errors : sum local = 8.3353e-12, global = 5.26357e-13, cumulative = 3.21489e-06
smoothSolver:  Solving for omega, Initial residual = 1.89724e-05, Final residual = 1.99109e-08, No Iterations 1
smoothSolver:  Solving for k, Initial residual = 0.000165682, Final residual = 1.80057e-07, No Iterations 1
ExecutionTime = 52.69 s  ClockTime = 53 s

End

Finalising parallel run
[SOLVER] completed (exit code: 0)
[SOLVER] Reconstructing parallel results...
[RECONSTRUCT] Running: reconstructPar
/*---------------------------------------------------------------------------*\
| =========                 |                                                 |
| \\      /  F ield         | OpenFOAM: The Open Source CFD Toolbox           |
|  \\    /   O peration     | Version:  2506                                  |
|   \\  /    A nd           | Website:  www.openfoam.com                      |
|    \\/     M anipulation  |                                                 |
\*---------------------------------------------------------------------------*/
Build  : _615aae61-20250627 OPENFOAM=2506 version=2506
Arch   : "LSB;label=32;scalar=64"
Exec   : reconstructPar
Date   : Jan 24 2026
Time   : 00:41:42
Host   : Vortex-Eclipse
PID    : 231573
I/O    : uncollated
Case   : /home/reen/openfoam/Tutorials/Rotating_Setup_Case/OpenFOAM_GUI/WindTunnelGUI/runs/Run_1_20260124_004043/windTunnelCase
nProcs : 1
trapFpe: Floating point exception trapping enabled (FOAM_SIGFPE).
fileModificationChecking : Monitoring run-time modified files using timeStampMaster (fileModificationSkew 5, maxFileModificationPolls 20)
allowSystemOperations : Allowing user-supplied system call operations

// * * * * * * * * * * * * * * * * * * * * * * * * * * * * * * * * * * * * * //
Create time



Reconstructing fields
region=region0

Time = 0.00481571

Reconstructing FV fields

    Reconstructing volScalarFields

        k
        nut
        omega
        p

    Reconstructing volVectorFields

        U

    Reconstructing surfaceScalarFields

        phi

Reconstructing point fields

No point fields

No lagrangian fields

No FA fields

Time = 0.0100369

Reconstructing FV fields

    Reconstructing volScalarFields

        k
        nut
        omega
        p

    Reconstructing volVectorFields

        U

    Reconstructing surfaceScalarFields

        phi

Reconstructing point fields

No point fields

No lagrangian fields

No FA fields

Time = 0.0153577

Reconstructing FV fields

    Reconstructing volScalarFields

        k
        nut
        omega
        p

    Reconstructing volVectorFields

        U

    Reconstructing surfaceScalarFields

        phi

Reconstructing point fields

No point fields

No lagrangian fields

No FA fields

Time = 0.0208031

Reconstructing FV fields

    Reconstructing volScalarFields

        k
        nut
        omega
        p

    Reconstructing volVectorFields

        U

    Reconstructing surfaceScalarFields

        phi

Reconstructing point fields

No point fields

No lagrangian fields

No FA fields

Time = 0.0263883

Reconstructing FV fields

    Reconstructing volScalarFields

        k
        nut
        omega
        p

    Reconstructing volVectorFields

        U

    Reconstructing surfaceScalarFields

        phi

Reconstructing point fields

No point fields

No lagrangian fields

No FA fields

Time = 0.0321491

Reconstructing FV fields

    Reconstructing volScalarFields

        k
        nut
        omega
        p

    Reconstructing volVectorFields

        U

    Reconstructing surfaceScalarFields

        phi

Reconstructing point fields

No point fields

No lagrangian fields

No FA fields

Time = 0.0380996

Reconstructing FV fields

    Reconstructing volScalarFields

        k
        nut
        omega
        p

    Reconstructing volVectorFields

        U

    Reconstructing surfaceScalarFields

        phi

Reconstructing point fields

No point fields

No lagrangian fields

No FA fields

Time = 0.0441302

Reconstructing FV fields

    Reconstructing volScalarFields

        k
        nut
        omega
        p

    Reconstructing volVectorFields

        U

    Reconstructing surfaceScalarFields

        phi

Reconstructing point fields

No point fields

No lagrangian fields

No FA fields

Time = 0.0502303

Reconstructing FV fields

    Reconstructing volScalarFields

        k
        nut
        omega
        p

    Reconstructing volVectorFields

        U

    Reconstructing surfaceScalarFields

        phi

Reconstructing point fields

No point fields

No lagrangian fields

No FA fields

Time = 0.056402

Reconstructing FV fields

    Reconstructing volScalarFields

        k
        nut
        omega
        p

    Reconstructing volVectorFields

        U

    Reconstructing surfaceScalarFields

        phi

Reconstructing point fields

No point fields

No lagrangian fields

No FA fields

Time = 0.0626487

Reconstructing FV fields

    Reconstructing volScalarFields

        k
        nut
        omega
        p

    Reconstructing volVectorFields

        U

    Reconstructing surfaceScalarFields

        phi

Reconstructing point fields

No point fields

No lagrangian fields

No FA fields

Time = 0.0689675

Reconstructing FV fields

    Reconstructing volScalarFields

        k
        nut
        omega
        p

    Reconstructing volVectorFields

        U

    Reconstructing surfaceScalarFields

        phi

Reconstructing point fields

No point fields

No lagrangian fields

No FA fields

Time = 0.0753528

Reconstructing FV fields

    Reconstructing volScalarFields

        k
        nut
        omega
        p

    Reconstructing volVectorFields

        U

    Reconstructing surfaceScalarFields

        phi

Reconstructing point fields

No point fields

No lagrangian fields

No FA fields

Time = 0.0818111

Reconstructing FV fields

    Reconstructing volScalarFields

        k
        nut
        omega
        p

    Reconstructing volVectorFields

        U

    Reconstructing surfaceScalarFields

        phi

Reconstructing point fields

No point fields

No lagrangian fields

No FA fields

Time = 0.0883555

Reconstructing FV fields

    Reconstructing volScalarFields

        k
        nut
        omega
        p

    Reconstructing volVectorFields

        U

    Reconstructing surfaceScalarFields

        phi

Reconstructing point fields

No point fields

No lagrangian fields

No FA fields

Time = 0.0949729

Reconstructing FV fields

    Reconstructing volScalarFields

        k
        nut
        omega
        p

    Reconstructing volVectorFields

        U

    Reconstructing surfaceScalarFields

        phi

Reconstructing point fields

No point fields

No lagrangian fields

No FA fields


End

[RECONSTRUCT] completed (exit code: 0)
