[WORKFLOW] Applying settings...
[SETTINGS] Updated controlDict: solver=pimpleFoam, endTime=0.1
[SETTINGS] Updated transportProperties: nu=1.5e-05
[SETTINGS] Updated turbulenceProperties: model=kOmegaSST
[WORKFLOW] Starting solver...
[SOLVER] Decomposing for parallel run...
[DECOMPOSE] Running: decomposePar -force
/*---------------------------------------------------------------------------*\
| =========                 |                                                 |
| \\      /  F ield         | OpenFOAM: The Open Source CFD Toolbox           |
|  \\    /   O peration     | Version:  2506                                  |
|   \\  /    A nd           | Website:  www.openfoam.com                      |
|    \\/     M anipulation  |                                                 |
\*---------------------------------------------------------------------------*/
Build  : _615aae61-20250627 OPENFOAM=2506 version=2506
Arch   : "LSB;label=32;scalar=64"
Exec   : decomposePar -force
Date   : Jan 24 2026
Time   : 18:44:07
Host   : Vortex-Eclipse
PID    : 239473
I/O    : uncollated
Case   : /home/reen/openfoam/Tutorials/Rotating_Setup_Case/OpenFOAM_GUI/WindTunnelGUI/runs/Run_1_20260124_184402/windTunnelCase
nProcs : 1
trapFpe: Floating point exception trapping enabled (FOAM_SIGFPE).
fileModificationChecking : Monitoring run-time modified files using timeStampMaster (fileModificationSkew 5, maxFileModificationPolls 20)
allowSystemOperations : Allowing user-supplied system call operations

// * * * * * * * * * * * * * * * * * * * * * * * * * * * * * * * * * * * * * //
Create time



Decomposing mesh

Create mesh

Calculating distribution of cells
Decomposition method scotch [12] (region region0)

Finished decomposition in 0.11 s

Calculating original mesh data

Distributing cells to processors

Distributing faces to processors

Distributing points to processors

Constructing processor meshes

Processor 0
    Number of cells = 3987
    Number of points = 1028
    Number of faces shared with processor 1 = 119
    Number of faces shared with processor 2 = 37
    Number of faces shared with processor 3 = 106
    Number of faces shared with processor 5 = 134
    Number of faces shared with processor 9 = 5
    Number of faces shared with processor 11 = 86
    Number of processor patches = 6
    Number of processor faces = 487
    Number of boundary faces = 761

Processor 1
    Number of cells = 3949
    Number of points = 865
    Number of faces shared with processor 0 = 119
    Number of faces shared with processor 2 = 182
    Number of faces shared with processor 3 = 22
    Number of faces shared with processor 4 = 37
    Number of faces shared with processor 5 = 63
    Number of processor patches = 5
    Number of processor faces = 423
    Number of boundary faces = 279

Processor 2
    Number of cells = 3972
    Number of points = 952
    Number of faces shared with processor 0 = 37
    Number of faces shared with processor 1 = 182
    Number of faces shared with processor 3 = 21
    Number of faces shared with processor 4 = 73
    Number of faces shared with processor 7 = 101
    Number of faces shared with processor 9 = 135
    Number of faces shared with processor 10 = 18
    Number of faces shared with processor 11 = 3
    Number of processor patches = 8
    Number of processor faces = 570
    Number of boundary faces = 444

Processor 3
    Number of cells = 3980
    Number of points = 838
    Number of faces shared with processor 0 = 106
    Number of faces shared with processor 1 = 22
    Number of faces shared with processor 2 = 21
    Number of faces shared with processor 4 = 110
    Number of faces shared with processor 5 = 151
    Number of processor patches = 5
    Number of processor faces = 410
    Number of boundary faces = 168

Processor 4
    Number of cells = 3991
    Number of points = 904
    Number of faces shared with processor 1 = 37
    Number of faces shared with processor 2 = 73
    Number of faces shared with processor 3 = 110
    Number of faces shared with processor 5 = 242
    Number of faces shared with processor 6 = 65
    Number of faces shared with processor 7 = 20
    Number of processor patches = 6
    Number of processor faces = 547
    Number of boundary faces = 243

Processor 5
    Number of cells = 3991
    Number of points = 924
    Number of faces shared with processor 0 = 134
    Number of faces shared with processor 1 = 63
    Number of faces shared with processor 3 = 151
    Number of faces shared with processor 4 = 242
    Number of processor patches = 4
    Number of processor faces = 590
    Number of boundary faces = 278

Processor 6
    Number of cells = 3960
    Number of points = 1024
    Number of faces shared with processor 4 = 65
    Number of faces shared with processor 7 = 137
    Number of processor patches = 2
    Number of processor faces = 202
    Number of boundary faces = 1076

Processor 7
    Number of cells = 3913
    Number of points = 996
    Number of faces shared with processor 2 = 101
    Number of faces shared with processor 4 = 20
    Number of faces shared with processor 6 = 137
    Number of faces shared with processor 8 = 106
    Number of faces shared with processor 9 = 24
    Number of faces shared with processor 10 = 56
    Number of faces shared with processor 11 = 33
    Number of processor patches = 7
    Number of processor faces = 477
    Number of boundary faces = 711

Processor 8
    Number of cells = 3934
    Number of points = 824
    Number of faces shared with processor 7 = 106
    Number of faces shared with processor 9 = 113
    Number of faces shared with processor 10 = 110
    Number of faces shared with processor 11 = 90
    Number of processor patches = 4
    Number of processor faces = 419
    Number of boundary faces = 137

Processor 9
    Number of cells = 3915
    Number of points = 881
    Number of faces shared with processor 0 = 5
    Number of faces shared with processor 2 = 135
    Number of faces shared with processor 7 = 24
    Number of faces shared with processor 8 = 113
    Number of faces shared with processor 10 = 56
    Number of faces shared with processor 11 = 152
    Number of processor patches = 6
    Number of processor faces = 485
    Number of boundary faces = 289

Processor 10
    Number of cells = 3913
    Number of points = 863
    Number of faces shared with processor 2 = 18
    Number of faces shared with processor 7 = 56
    Number of faces shared with processor 8 = 110
    Number of faces shared with processor 9 = 56
    Number of faces shared with processor 11 = 228
    Number of processor patches = 5
    Number of processor faces = 468
    Number of boundary faces = 244

Processor 11
    Number of cells = 3920
    Number of points = 904
    Number of faces shared with processor 0 = 86
    Number of faces shared with processor 2 = 3
    Number of faces shared with processor 7 = 33
    Number of faces shared with processor 8 = 90
    Number of faces shared with processor 9 = 152
    Number of faces shared with processor 10 = 228
    Number of processor patches = 6
    Number of processor faces = 592
    Number of boundary faces = 268

Number of processor faces = 2835
Max number of cells = 3991 (0.984713% above average 3952.08)
Max number of processor patches = 8 (50% above average 5.33333)
Max number of faces between processors = 592 (25.291% above average 472.5)

Time = 0

Processor 0: field transfer
Processor 1: field transfer
Processor 2: field transfer
Processor 3: field transfer
Processor 4: field transfer
Processor 5: field transfer
Processor 6: field transfer
Processor 7: field transfer
Processor 8: field transfer
Processor 9: field transfer
Processor 10: field transfer
Processor 11: field transfer

End

[DECOMPOSE] completed (exit code: 0)
[SOLVER] Running pimpleFoam...
[SOLVER] Running: mpirun -np 12 pimpleFoam -parallel
/*---------------------------------------------------------------------------*\
| =========                 |                                                 |
| \\      /  F ield         | OpenFOAM: The Open Source CFD Toolbox           |
|  \\    /   O peration     | Version:  2506                                  |
|   \\  /    A nd           | Website:  www.openfoam.com                      |
|    \\/     M anipulation  |                                                 |
\*---------------------------------------------------------------------------*/
Build  : _615aae61-20250627 OPENFOAM=2506 version=2506
Arch   : "LSB;label=32;scalar=64"
Exec   : pimpleFoam -parallel
Date   : Jan 24 2026
Time   : 18:44:08
Host   : Vortex-Eclipse
PID    : 240954
I/O    : uncollated
Case   : /home/reen/openfoam/Tutorials/Rotating_Setup_Case/OpenFOAM_GUI/WindTunnelGUI/runs/Run_1_20260124_184402/windTunnelCase
nProcs : 12
Hosts  :
(
    (Vortex-Eclipse 12)
)
Pstream initialized with:
    node communication : off [type=host] (12 ranks, 1 nodes)
    topology controls  : none
    consensus exchange : 0 (tuning: 0)
    exchange algorithm : 0
    commsType          : nonBlocking
    polling iterations : 0
trapFpe: Floating point exception trapping enabled (FOAM_SIGFPE).
fileModificationChecking : Monitoring run-time modified files using timeStampMaster (fileModificationSkew 5, maxFileModificationPolls 20)
allowSystemOperations : Allowing user-supplied system call operations

// * * * * * * * * * * * * * * * * * * * * * * * * * * * * * * * * * * * * * //
Create time

Create mesh for time = 0


PIMPLE: no residual control data found. Calculations will employ 2 corrector loops

Reading field p

Reading field U

Reading/calculating face flux field phi

Selecting incompressible transport model Newtonian
Selecting turbulence model type RAS
Selecting RAS turbulence model kOmegaSST
Selecting patchDistMethod meshWave
RAS
{
    RASModel        kOmegaSST;
    turbulence      on;
    printCoeffs     on;
    alphaK1         0.85;
    alphaK2         1;
    alphaOmega1     0.5;
    alphaOmega2     0.856;
    gamma1          0.555556;
    gamma2          0.44;
    beta1           0.075;
    beta2           0.0828;
    betaStar        0.09;
    a1              0.31;
    b1              1;
    c1              10;
    F3              false;
    decayControl    false;
    kInf            0;
    omegaInf        0;
}

No MRF models present

No finite volume options present
Courant Number mean: 1.30588e-05 max: 0.00273856
Courant Number mean: 1.30588e-05 max: 0.00273856

Starting time loop

Courant Number mean: 1.30588e-05 max: 0.00273856
deltaT = 1.2e-05
Time = 1.2e-05

PIMPLE: iteration 1
smoothSolver:  Solving for Ux, Initial residual = 1, Final residual = 1.59557e-16, No Iterations 1
smoothSolver:  Solving for Uy, Initial residual = 0, Final residual = 0, No Iterations 0
smoothSolver:  Solving for Uz, Initial residual = 0, Final residual = 0, No Iterations 0
GAMG:  Solving for p, Initial residual = 1, Final residual = 0.0571976, No Iterations 6
GAMG:  Solving for p, Initial residual = 0.152089, Final residual = 0.00633494, No Iterations 1
time step continuity errors : sum local = 4.36822e-05, global = -1.19486e-07, cumulative = -1.19486e-07
GAMG:  Solving for p, Initial residual = 0.975731, Final residual = 0.0557877, No Iterations 6
GAMG:  Solving for p, Initial residual = 0.152074, Final residual = 9.53951e-07, No Iterations 10
time step continuity errors : sum local = 6.57794e-09, global = 3.48867e-10, cumulative = -1.19138e-07
PIMPLE: iteration 2
smoothSolver:  Solving for Ux, Initial residual = 0.999982, Final residual = 7.45978e-08, No Iterations 2
smoothSolver:  Solving for Uy, Initial residual = 0.999799, Final residual = 7.37351e-08, No Iterations 2
smoothSolver:  Solving for Uz, Initial residual = 0.999799, Final residual = 8.20708e-08, No Iterations 2
GAMG:  Solving for p, Initial residual = 0.0154579, Final residual = 0.00077484, No Iterations 1
GAMG:  Solving for p, Initial residual = 0.00231167, Final residual = 0.000204416, No Iterations 1
time step continuity errors : sum local = 1.58738e-06, global = -1.35648e-07, cumulative = -2.54786e-07
GAMG:  Solving for p, Initial residual = 0.000795024, Final residual = 4.74472e-05, No Iterations 2
GAMG:  Solving for p, Initial residual = 0.00060416, Final residual = 9.12181e-07, No Iterations 5
time step continuity errors : sum local = 7.14553e-09, global = -4.38667e-10, cumulative = -2.55224e-07
smoothSolver:  Solving for omega, Initial residual = 0.00104027, Final residual = 2.20399e-07, No Iterations 1
smoothSolver:  Solving for k, Initial residual = 1, Final residual = 8.48049e-08, No Iterations 2
ExecutionTime = 0.07 s  ClockTime = 0 s

Courant Number mean: 0.00363185 max: 0.17667
deltaT = 1.44e-05
Time = 2.64e-05

PIMPLE: iteration 1
smoothSolver:  Solving for Ux, Initial residual = 0.000387735, Final residual = 6.02526e-12, No Iterations 1
smoothSolver:  Solving for Uy, Initial residual = 5.97364e-05, Final residual = 8.64167e-13, No Iterations 1
smoothSolver:  Solving for Uz, Initial residual = 5.93045e-05, Final residual = 9.15644e-13, No Iterations 1
GAMG:  Solving for p, Initial residual = 0.99879, Final residual = 0.0499779, No Iterations 1
GAMG:  Solving for p, Initial residual = 0.0641768, Final residual = 0.0038826, No Iterations 2
time step continuity errors : sum local = 5.03363e-06, global = 3.65665e-07, cumulative = 1.10441e-07
GAMG:  Solving for p, Initial residual = 0.998688, Final residual = 0.0499731, No Iterations 1
GAMG:  Solving for p, Initial residual = 0.064169, Final residual = 5.53894e-07, No Iterations 12
time step continuity errors : sum local = 7.18117e-10, global = 4.06266e-11, cumulative = 1.10482e-07
PIMPLE: iteration 2
smoothSolver:  Solving for Ux, Initial residual = 0.861377, Final residual = 4.34937e-08, No Iterations 2
smoothSolver:  Solving for Uy, Initial residual = 0.35028, Final residual = 1.59002e-08, No Iterations 2
smoothSolver:  Solving for Uz, Initial residual = 0.347594, Final residual = 1.89123e-08, No Iterations 2
GAMG:  Solving for p, Initial residual = 0.0411824, Final residual = 0.00323381, No Iterations 3
GAMG:  Solving for p, Initial residual = 0.605813, Final residual = 0.0253701, No Iterations 1
time step continuity errors : sum local = 5.62585e-05, global = 2.55285e-06, cumulative = 2.66333e-06
GAMG:  Solving for p, Initial residual = 0.158575, Final residual = 0.014482, No Iterations 1
GAMG:  Solving for p, Initial residual = 0.0781314, Final residual = 5.52785e-07, No Iterations 12
time step continuity errors : sum local = 3.76363e-10, global = 2.08221e-11, cumulative = 2.66335e-06
smoothSolver:  Solving for omega, Initial residual = 0.00112855, Final residual = 2.75481e-07, No Iterations 1
smoothSolver:  Solving for k, Initial residual = 0.366897, Final residual = 3.04071e-08, No Iterations 2
ExecutionTime = 0.1 s  ClockTime = 0 s

Courant Number mean: 0.004386 max: 0.207732
deltaT = 1.728e-05
Time = 4.368e-05

PIMPLE: iteration 1
smoothSolver:  Solving for Ux, Initial residual = 9.48492e-06, Final residual = 1.83903e-13, No Iterations 1
smoothSolver:  Solving for Uy, Initial residual = 7.62455e-06, Final residual = 1.31857e-13, No Iterations 1
smoothSolver:  Solving for Uz, Initial residual = 7.11011e-06, Final residual = 1.19432e-13, No Iterations 1
GAMG:  Solving for p, Initial residual = 0.999863, Final residual = 0.047123, No Iterations 1
GAMG:  Solving for p, Initial residual = 0.0569627, Final residual = 0.00347519, No Iterations 2
time step continuity errors : sum local = 4.30886e-06, global = 3.15218e-07, cumulative = 2.97857e-06
GAMG:  Solving for p, Initial residual = 0.999639, Final residual = 0.0471126, No Iterations 1
GAMG:  Solving for p, Initial residual = 0.0569559, Final residual = 4.94404e-07, No Iterations 12
time step continuity errors : sum local = 6.13023e-10, global = 3.4802e-11, cumulative = 2.9786e-06
PIMPLE: iteration 2
smoothSolver:  Solving for Ux, Initial residual = 0.301782, Final residual = 2.16431e-08, No Iterations 2
smoothSolver:  Solving for Uy, Initial residual = 0.165927, Final residual = 9.88164e-09, No Iterations 2
smoothSolver:  Solving for Uz, Initial residual = 0.162122, Final residual = 9.83143e-09, No Iterations 2
GAMG:  Solving for p, Initial residual = 0.482407, Final residual = 0.0219994, No Iterations 1
GAMG:  Solving for p, Initial residual = 0.124856, Final residual = 0.00689046, No Iterations 2
time step continuity errors : sum local = 5.70723e-06, global = -4.17356e-07, cumulative = 2.56124e-06
GAMG:  Solving for p, Initial residual = 0.177266, Final residual = 0.00933616, No Iterations 1
GAMG:  Solving for p, Initial residual = 0.0259075, Final residual = 6.21745e-07, No Iterations 11
time step continuity errors : sum local = 2.24982e-10, global = -1.2267e-11, cumulative = 2.56123e-06
smoothSolver:  Solving for omega, Initial residual = 0.00128993, Final residual = 3.87772e-07, No Iterations 1
smoothSolver:  Solving for k, Initial residual = 0.265389, Final residual = 3.33572e-08, No Iterations 2
ExecutionTime = 0.13 s  ClockTime = 0 s

Courant Number mean: 0.00526036 max: 0.241725
deltaT = 2.0736e-05
Time = 6.4416e-05

PIMPLE: iteration 1
smoothSolver:  Solving for Ux, Initial residual = 3.87501e-06, Final residual = 9.40633e-14, No Iterations 1
smoothSolver:  Solving for Uy, Initial residual = 2.60971e-06, Final residual = 5.86534e-14, No Iterations 1
smoothSolver:  Solving for Uz, Initial residual = 2.50632e-06, Final residual = 5.41153e-14, No Iterations 1
GAMG:  Solving for p, Initial residual = 0.999941, Final residual = 0.0456157, No Iterations 1
GAMG:  Solving for p, Initial residual = 0.0544796, Final residual = 0.00325019, No Iterations 2
time step continuity errors : sum local = 4.32822e-06, global = 3.18569e-07, cumulative = 2.8798e-06
GAMG:  Solving for p, Initial residual = 0.999713, Final residual = 0.0456055, No Iterations 1
GAMG:  Solving for p, Initial residual = 0.0544731, Final residual = 4.6274e-07, No Iterations 12
time step continuity errors : sum local = 6.16235e-10, global = 3.50627e-11, cumulative = 2.87984e-06
PIMPLE: iteration 2
smoothSolver:  Solving for Ux, Initial residual = 0.225771, Final residual = 2.4569e-08, No Iterations 2
smoothSolver:  Solving for Uy, Initial residual = 0.11428, Final residual = 1.06393e-08, No Iterations 2
smoothSolver:  Solving for Uz, Initial residual = 0.111818, Final residual = 1.04791e-08, No Iterations 2
GAMG:  Solving for p, Initial residual = 0.470011, Final residual = 0.0212569, No Iterations 1
GAMG:  Solving for p, Initial residual = 0.117753, Final residual = 0.00689825, No Iterations 2
time step continuity errors : sum local = 4.80756e-06, global = -3.56376e-07, cumulative = 2.52346e-06
GAMG:  Solving for p, Initial residual = 0.184731, Final residual = 0.00960504, No Iterations 1
GAMG:  Solving for p, Initial residual = 0.0264837, Final residual = 6.34287e-07, No Iterations 11
time step continuity errors : sum local = 1.88965e-10, global = -1.027e-11, cumulative = 2.52345e-06
smoothSolver:  Solving for omega, Initial residual = 0.00148124, Final residual = 5.49454e-07, No Iterations 1
smoothSolver:  Solving for k, Initial residual = 0.192813, Final residual = 3.74956e-08, No Iterations 2
ExecutionTime = 0.17 s  ClockTime = 0 s

Courant Number mean: 0.00630954 max: 0.281238
deltaT = 2.44226e-05
Time = 8.88386e-05

PIMPLE: iteration 1
smoothSolver:  Solving for Ux, Initial residual = 2.55758e-06, Final residual = 7.52873e-14, No Iterations 1
smoothSolver:  Solving for Uy, Initial residual = 1.76804e-06, Final residual = 4.84326e-14, No Iterations 1
smoothSolver:  Solving for Uz, Initial residual = 1.72132e-06, Final residual = 4.53094e-14, No Iterations 1
GAMG:  Solving for p, Initial residual = 0.999956, Final residual = 0.044491, No Iterations 1
GAMG:  Solving for p, Initial residual = 0.0527878, Final residual = 0.0030742, No Iterations 2
time step continuity errors : sum local = 4.42054e-06, global = 3.27012e-07, cumulative = 2.85046e-06
GAMG:  Solving for p, Initial residual = 0.999729, Final residual = 0.0444811, No Iterations 1
GAMG:  Solving for p, Initial residual = 0.0527816, Final residual = 4.37799e-07, No Iterations 12
time step continuity errors : sum local = 6.29544e-10, global = 3.58783e-11, cumulative = 2.8505e-06
PIMPLE: iteration 2
smoothSolver:  Solving for Ux, Initial residual = 0.188438, Final residual = 2.96068e-08, No Iterations 2
smoothSolver:  Solving for Uy, Initial residual = 0.0985809, Final residual = 1.31258e-08, No Iterations 2
smoothSolver:  Solving for Uz, Initial residual = 0.0961312, Final residual = 1.29051e-08, No Iterations 2
GAMG:  Solving for p, Initial residual = 0.492554, Final residual = 0.0218031, No Iterations 1
GAMG:  Solving for p, Initial residual = 0.123829, Final residual = 0.00709827, No Iterations 2
time step continuity errors : sum local = 4.74815e-06, global = -3.52845e-07, cumulative = 2.49765e-06
GAMG:  Solving for p, Initial residual = 0.195603, Final residual = 0.0101729, No Iterations 1
GAMG:  Solving for p, Initial residual = 0.0281768, Final residual = 6.73847e-07, No Iterations 11
time step continuity errors : sum local = 1.84988e-10, global = -1.00569e-11, cumulative = 2.49764e-06
smoothSolver:  Solving for omega, Initial residual = 0.00166967, Final residual = 7.50051e-07, No Iterations 1
smoothSolver:  Solving for k, Initial residual = 0.149425, Final residual = 4.34143e-08, No Iterations 2
ExecutionTime = 0.2 s  ClockTime = 0 s

Courant Number mean: 0.00742832 max: 0.321439
deltaT = 2.82215e-05
Time = 0.00011706

PIMPLE: iteration 1
smoothSolver:  Solving for Ux, Initial residual = 1.90076e-06, Final residual = 6.61631e-14, No Iterations 1
smoothSolver:  Solving for Uy, Initial residual = 1.43895e-06, Final residual = 4.72235e-14, No Iterations 1
smoothSolver:  Solving for Uz, Initial residual = 1.40003e-06, Final residual = 4.4027e-14, No Iterations 1
GAMG:  Solving for p, Initial residual = 0.999964, Final residual = 0.043611, No Iterations 1
GAMG:  Solving for p, Initial residual = 0.0515191, Final residual = 0.00292859, No Iterations 2
time step continuity errors : sum local = 4.52009e-06, global = 3.35778e-07, cumulative = 2.83342e-06
GAMG:  Solving for p, Initial residual = 0.999738, Final residual = 0.0436013, No Iterations 1
GAMG:  Solving for p, Initial residual = 0.0515131, Final residual = 4.17136e-07, No Iterations 12
time step continuity errors : sum local = 6.43835e-10, global = 3.67448e-11, cumulative = 2.83346e-06
PIMPLE: iteration 2
smoothSolver:  Solving for Ux, Initial residual = 0.162539, Final residual = 3.53836e-08, No Iterations 2
smoothSolver:  Solving for Uy, Initial residual = 0.088713, Final residual = 1.62169e-08, No Iterations 2
smoothSolver:  Solving for Uz, Initial residual = 0.0862779, Final residual = 1.59759e-08, No Iterations 2
GAMG:  Solving for p, Initial residual = 0.514124, Final residual = 0.0223468, No Iterations 1
GAMG:  Solving for p, Initial residual = 0.129863, Final residual = 0.00727488, No Iterations 2
time step continuity errors : sum local = 4.77968e-06, global = -3.5608e-07, cumulative = 2.47738e-06
GAMG:  Solving for p, Initial residual = 0.205266, Final residual = 0.0106813, No Iterations 1
GAMG:  Solving for p, Initial residual = 0.0297268, Final residual = 7.08961e-07, No Iterations 11
time step continuity errors : sum local = 1.84641e-10, global = -1.00442e-11, cumulative = 2.47737e-06
smoothSolver:  Solving for omega, Initial residual = 0.00184378, Final residual = 9.8362e-07, No Iterations 1
smoothSolver:  Solving for k, Initial residual = 0.12094, Final residual = 5.05771e-08, No Iterations 2
ExecutionTime = 0.23 s  ClockTime = 0 s

Courant Number mean: 0.0085807 max: 0.364879
deltaT = 3.20887e-05
Time = 0.000149149

PIMPLE: iteration 1
smoothSolver:  Solving for Ux, Initial residual = 1.54558e-06, Final residual = 6.21927e-14, No Iterations 1
smoothSolver:  Solving for Uy, Initial residual = 1.27096e-06, Final residual = 4.88458e-14, No Iterations 1
smoothSolver:  Solving for Uz, Initial residual = 1.23282e-06, Final residual = 4.58295e-14, No Iterations 1
GAMG:  Solving for p, Initial residual = 0.999969, Final residual = 0.0429077, No Iterations 1
GAMG:  Solving for p, Initial residual = 0.0505397, Final residual = 0.00280486, No Iterations 2
time step continuity errors : sum local = 4.61154e-06, global = 3.43692e-07, cumulative = 2.82106e-06
GAMG:  Solving for p, Initial residual = 0.999743, Final residual = 0.0428982, No Iterations 1
GAMG:  Solving for p, Initial residual = 0.0505337, Final residual = 9.67882e-07, No Iterations 11
time step continuity errors : sum local = 1.59135e-09, global = 8.10182e-11, cumulative = 2.82114e-06
PIMPLE: iteration 2
smoothSolver:  Solving for Ux, Initial residual = 0.143382, Final residual = 4.16816e-08, No Iterations 2
smoothSolver:  Solving for Uy, Initial residual = 0.0816086, Final residual = 1.9805e-08, No Iterations 2
smoothSolver:  Solving for Uz, Initial residual = 0.0791702, Final residual = 1.95653e-08, No Iterations 2
GAMG:  Solving for p, Initial residual = 0.533397, Final residual = 0.0228367, No Iterations 1
GAMG:  Solving for p, Initial residual = 0.135709, Final residual = 0.0074304, No Iterations 2
time step continuity errors : sum local = 4.83081e-06, global = -3.60809e-07, cumulative = 2.46033e-06
GAMG:  Solving for p, Initial residual = 0.213774, Final residual = 0.011134, No Iterations 1
GAMG:  Solving for p, Initial residual = 0.0311282, Final residual = 7.40357e-07, No Iterations 11
time step continuity errors : sum local = 1.85111e-10, global = -1.00745e-11, cumulative = 2.46032e-06
smoothSolver:  Solving for omega, Initial residual = 0.00199882, Final residual = 2.00933e-09, No Iterations 2
smoothSolver:  Solving for k, Initial residual = 0.10076, Final residual = 5.87131e-08, No Iterations 2
ExecutionTime = 0.26 s  ClockTime = 0 s

Courant Number mean: 0.00975326 max: 0.407636
deltaT = 3.60247e-05
Time = 0.000185173

PIMPLE: iteration 1
smoothSolver:  Solving for Ux, Initial residual = 1.36059e-06, Final residual = 6.18699e-14, No Iterations 1
smoothSolver:  Solving for Uy, Initial residual = 1.18423e-06, Final residual = 5.21387e-14, No Iterations 1
smoothSolver:  Solving for Uz, Initial residual = 1.14504e-06, Final residual = 4.94136e-14, No Iterations 1
GAMG:  Solving for p, Initial residual = 0.999973, Final residual = 0.0423282, No Iterations 1
GAMG:  Solving for p, Initial residual = 0.0497665, Final residual = 0.00269813, No Iterations 2
time step continuity errors : sum local = 4.69371e-06, global = 3.50713e-07, cumulative = 2.81104e-06
GAMG:  Solving for p, Initial residual = 0.999748, Final residual = 0.0423188, No Iterations 1
GAMG:  Solving for p, Initial residual = 0.0497607, Final residual = 9.31117e-07, No Iterations 11
time step continuity errors : sum local = 1.61981e-09, global = 8.24636e-11, cumulative = 2.81112e-06
PIMPLE: iteration 2
smoothSolver:  Solving for Ux, Initial residual = 0.128635, Final residual = 4.84149e-08, No Iterations 2
smoothSolver:  Solving for Uy, Initial residual = 0.0761961, Final residual = 2.39647e-08, No Iterations 2
smoothSolver:  Solving for Uz, Initial residual = 0.0737481, Final residual = 2.36818e-08, No Iterations 2
GAMG:  Solving for p, Initial residual = 0.550607, Final residual = 0.0232829, No Iterations 1
GAMG:  Solving for p, Initial residual = 0.141384, Final residual = 0.0075704, No Iterations 2
time step continuity errors : sum local = 4.88802e-06, global = -3.65804e-07, cumulative = 2.44531e-06
GAMG:  Solving for p, Initial residual = 0.221384, Final residual = 0.0115428, No Iterations 1
GAMG:  Solving for p, Initial residual = 0.0324264, Final residual = 7.69132e-07, No Iterations 11
time step continuity errors : sum local = 1.85868e-10, global = -1.01196e-11, cumulative = 2.4453e-06
smoothSolver:  Solving for omega, Initial residual = 0.00213389, Final residual = 2.96187e-09, No Iterations 2
smoothSolver:  Solving for k, Initial residual = 0.0857443, Final residual = 6.80493e-08, No Iterations 2
ExecutionTime = 0.29 s  ClockTime = 0 s

Courant Number mean: 0.0109461 max: 0.449263
deltaT = 4.0034e-05
Time = 0.000225207

PIMPLE: iteration 1
smoothSolver:  Solving for Ux, Initial residual = 1.27926e-06, Final residual = 6.45551e-14, No Iterations 1
smoothSolver:  Solving for Uy, Initial residual = 1.14543e-06, Final residual = 5.67653e-14, No Iterations 1
smoothSolver:  Solving for Uz, Initial residual = 1.10378e-06, Final residual = 5.43263e-14, No Iterations 1
GAMG:  Solving for p, Initial residual = 0.999975, Final residual = 0.0418455, No Iterations 1
GAMG:  Solving for p, Initial residual = 0.0491584, Final residual = 0.00260533, No Iterations 2
time step continuity errors : sum local = 4.76751e-06, global = 3.5695e-07, cumulative = 2.80225e-06
GAMG:  Solving for p, Initial residual = 0.999752, Final residual = 0.0418362, No Iterations 1
GAMG:  Solving for p, Initial residual = 0.0491527, Final residual = 8.99114e-07, No Iterations 11
time step continuity errors : sum local = 1.64532e-09, global = 8.37706e-11, cumulative = 2.80234e-06
PIMPLE: iteration 2
smoothSolver:  Solving for Ux, Initial residual = 0.116967, Final residual = 5.5636e-08, No Iterations 2
smoothSolver:  Solving for Uy, Initial residual = 0.0719027, Final residual = 2.87133e-08, No Iterations 2
smoothSolver:  Solving for Uz, Initial residual = 0.069456, Final residual = 2.83757e-08, No Iterations 2
GAMG:  Solving for p, Initial residual = 0.566064, Final residual = 0.0236902, No Iterations 1
GAMG:  Solving for p, Initial residual = 0.146884, Final residual = 0.00769757, No Iterations 2
time step continuity errors : sum local = 4.94537e-06, global = -3.70766e-07, cumulative = 2.43157e-06
GAMG:  Solving for p, Initial residual = 0.228237, Final residual = 0.0119138, No Iterations 1
GAMG:  Solving for p, Initial residual = 0.0336305, Final residual = 7.95578e-07, No Iterations 11
time step continuity errors : sum local = 1.86677e-10, global = -1.01669e-11, cumulative = 2.43156e-06
smoothSolver:  Solving for omega, Initial residual = 0.00224887, Final residual = 4.23094e-09, No Iterations 2
smoothSolver:  Solving for k, Initial residual = 0.0741114, Final residual = 7.84941e-08, No Iterations 2
ExecutionTime = 0.32 s  ClockTime = 0 s

Courant Number mean: 0.0121607 max: 0.489852
deltaT = 4.08634e-05
Time = 0.000266071

PIMPLE: iteration 1
smoothSolver:  Solving for Ux, Initial residual = 1.16928e-06, Final residual = 5.99233e-14, No Iterations 1
smoothSolver:  Solving for Uy, Initial residual = 1.05403e-06, Final residual = 5.36293e-14, No Iterations 1
smoothSolver:  Solving for Uz, Initial residual = 1.01316e-06, Final residual = 5.20099e-14, No Iterations 1
GAMG:  Solving for p, Initial residual = 0.999979, Final residual = 0.0414377, No Iterations 1
GAMG:  Solving for p, Initial residual = 0.0486724, Final residual = 0.00252439, No Iterations 2
time step continuity errors : sum local = 4.47766e-06, global = 3.3577e-07, cumulative = 2.76733e-06
GAMG:  Solving for p, Initial residual = 0.999757, Final residual = 0.0414286, No Iterations 1
GAMG:  Solving for p, Initial residual = 0.0486668, Final residual = 8.71191e-07, No Iterations 11
time step continuity errors : sum local = 1.54531e-09, global = 7.87053e-11, cumulative = 2.76741e-06
PIMPLE: iteration 2
smoothSolver:  Solving for Ux, Initial residual = 0.107055, Final residual = 5.24171e-08, No Iterations 2
smoothSolver:  Solving for Uy, Initial residual = 0.0677267, Final residual = 2.80367e-08, No Iterations 2
smoothSolver:  Solving for Uz, Initial residual = 0.0652912, Final residual = 2.76632e-08, No Iterations 2
GAMG:  Solving for p, Initial residual = 0.578772, Final residual = 0.0240104, No Iterations 1
GAMG:  Solving for p, Initial residual = 0.151525, Final residual = 0.0077825, No Iterations 2
time step continuity errors : sum local = 4.5997e-06, global = -3.45231e-07, cumulative = 2.42218e-06
GAMG:  Solving for p, Initial residual = 0.232142, Final residual = 0.0121505, No Iterations 1
GAMG:  Solving for p, Initial residual = 0.0344547, Final residual = 8.15236e-07, No Iterations 11
time step continuity errors : sum local = 1.73092e-10, global = -9.43037e-12, cumulative = 2.42217e-06
smoothSolver:  Solving for omega, Initial residual = 0.00217387, Final residual = 4.36747e-09, No Iterations 2
smoothSolver:  Solving for k, Initial residual = 0.0601544, Final residual = 6.85559e-08, No Iterations 2
ExecutionTime = 0.36 s  ClockTime = 1 s

Courant Number mean: 0.0124092 max: 0.49098
deltaT = 4.16141e-05
Time = 0.000307685

PIMPLE: iteration 1
smoothSolver:  Solving for Ux, Initial residual = 1.13046e-06, Final residual = 5.82025e-14, No Iterations 1
smoothSolver:  Solving for Uy, Initial residual = 1.01529e-06, Final residual = 5.2408e-14, No Iterations 1
smoothSolver:  Solving for Uz, Initial residual = 9.74551e-07, Final residual = 9.74551e-07, No Iterations 0
GAMG:  Solving for p, Initial residual = 0.999981, Final residual = 0.0410915, No Iterations 1
GAMG:  Solving for p, Initial residual = 0.0482714, Final residual = 0.00245223, No Iterations 2
time step continuity errors : sum local = 4.22204e-06, global = 3.16926e-07, cumulative = 2.73909e-06
GAMG:  Solving for p, Initial residual = 0.99976, Final residual = 0.0410825, No Iterations 1
GAMG:  Solving for p, Initial residual = 0.0482658, Final residual = 8.46233e-07, No Iterations 11
time step continuity errors : sum local = 1.45699e-09, global = 7.42377e-11, cumulative = 2.73917e-06
PIMPLE: iteration 2
smoothSolver:  Solving for Ux, Initial residual = 0.0994947, Final residual = 5.03334e-08, No Iterations 2
smoothSolver:  Solving for Uy, Initial residual = 0.0646152, Final residual = 2.75935e-08, No Iterations 2
smoothSolver:  Solving for Uz, Initial residual = 0.0621903, Final residual = 2.71898e-08, No Iterations 2
GAMG:  Solving for p, Initial residual = 0.590894, Final residual = 0.0243199, No Iterations 1
GAMG:  Solving for p, Initial residual = 0.156252, Final residual = 0.00786883, No Iterations 2
time step continuity errors : sum local = 4.32943e-06, global = -3.25329e-07, cumulative = 2.41384e-06
GAMG:  Solving for p, Initial residual = 0.236341, Final residual = 0.0124057, No Iterations 1
GAMG:  Solving for p, Initial residual = 0.0353788, Final residual = 8.37304e-07, No Iterations 11
time step continuity errors : sum local = 1.62474e-10, global = -8.85447e-12, cumulative = 2.41383e-06
smoothSolver:  Solving for omega, Initial residual = 0.00209854, Final residual = 4.47642e-09, No Iterations 2
smoothSolver:  Solving for k, Initial residual = 0.0502211, Final residual = 6.12729e-08, No Iterations 2
ExecutionTime = 0.39 s  ClockTime = 1 s

Courant Number mean: 0.0126339 max: 0.491328
deltaT = 4.23486e-05
Time = 0.000350033

PIMPLE: iteration 1
smoothSolver:  Solving for Ux, Initial residual = 1.10714e-06, Final residual = 5.71942e-14, No Iterations 1
smoothSolver:  Solving for Uy, Initial residual = 9.87383e-07, Final residual = 9.87383e-07, No Iterations 0
smoothSolver:  Solving for Uz, Initial residual = 9.46351e-07, Final residual = 9.46351e-07, No Iterations 0
GAMG:  Solving for p, Initial residual = 0.999982, Final residual = 0.0407903, No Iterations 1
GAMG:  Solving for p, Initial residual = 0.0479423, Final residual = 0.00238756, No Iterations 2
time step continuity errors : sum local = 3.99952e-06, global = 3.00419e-07, cumulative = 2.71425e-06
GAMG:  Solving for p, Initial residual = 0.999761, Final residual = 0.0407814, No Iterations 1
GAMG:  Solving for p, Initial residual = 0.0479368, Final residual = 8.23839e-07, No Iterations 11
time step continuity errors : sum local = 1.38007e-09, global = 7.03495e-11, cumulative = 2.71432e-06
PIMPLE: iteration 2
smoothSolver:  Solving for Ux, Initial residual = 0.0931376, Final residual = 4.86787e-08, No Iterations 2
smoothSolver:  Solving for Uy, Initial residual = 0.0619467, Final residual = 2.72539e-08, No Iterations 2
smoothSolver:  Solving for Uz, Initial residual = 0.0595398, Final residual = 2.68367e-08, No Iterations 2
GAMG:  Solving for p, Initial residual = 0.601895, Final residual = 0.0246033, No Iterations 1
GAMG:  Solving for p, Initial residual = 0.160813, Final residual = 0.00794737, No Iterations 2
time step continuity errors : sum local = 4.09589e-06, global = -3.08003e-07, cumulative = 2.40632e-06
GAMG:  Solving for p, Initial residual = 0.239938, Final residual = 0.0126296, No Iterations 1
GAMG:  Solving for p, Initial residual = 0.036219, Final residual = 8.57279e-07, No Iterations 11
time step continuity errors : sum local = 1.5331e-10, global = -8.35747e-12, cumulative = 2.40631e-06
smoothSolver:  Solving for omega, Initial residual = 0.00202559, Final residual = 4.58155e-09, No Iterations 2
smoothSolver:  Solving for k, Initial residual = 0.042857, Final residual = 5.56104e-08, No Iterations 2
ExecutionTime = 0.43 s  ClockTime = 1 s

Courant Number mean: 0.0128539 max: 0.49166
deltaT = 4.30669e-05
Time = 0.0003931

PIMPLE: iteration 1
smoothSolver:  Solving for Ux, Initial residual = 1.09351e-06, Final residual = 5.66693e-14, No Iterations 1
smoothSolver:  Solving for Uy, Initial residual = 9.66534e-07, Final residual = 9.66534e-07, No Iterations 0
smoothSolver:  Solving for Uz, Initial residual = 9.25191e-07, Final residual = 9.25191e-07, No Iterations 0
GAMG:  Solving for p, Initial residual = 0.999982, Final residual = 0.0405316, No Iterations 1
GAMG:  Solving for p, Initial residual = 0.0476711, Final residual = 0.0023293, No Iterations 2
time step continuity errors : sum local = 3.80378e-06, global = 2.8582e-07, cumulative = 2.69213e-06
GAMG:  Solving for p, Initial residual = 0.999763, Final residual = 0.0405228, No Iterations 1
GAMG:  Solving for p, Initial residual = 0.0476656, Final residual = 8.03651e-07, No Iterations 11
time step continuity errors : sum local = 1.31239e-09, global = 6.69307e-11, cumulative = 2.6922e-06
PIMPLE: iteration 2
smoothSolver:  Solving for Ux, Initial residual = 0.0877223, Final residual = 4.74039e-08, No Iterations 2
smoothSolver:  Solving for Uy, Initial residual = 0.0596242, Final residual = 2.70471e-08, No Iterations 2
smoothSolver:  Solving for Uz, Initial residual = 0.0572406, Final residual = 2.66531e-08, No Iterations 2
GAMG:  Solving for p, Initial residual = 0.611936, Final residual = 0.0248643, No Iterations 1
GAMG:  Solving for p, Initial residual = 0.165216, Final residual = 0.00801945, No Iterations 2
time step continuity errors : sum local = 3.89133e-06, global = -2.92757e-07, cumulative = 2.39944e-06
GAMG:  Solving for p, Initial residual = 0.24299, Final residual = 0.0128258, No Iterations 1
GAMG:  Solving for p, Initial residual = 0.0369843, Final residual = 8.75417e-07, No Iterations 11
time step continuity errors : sum local = 1.45292e-10, global = -7.92248e-12, cumulative = 2.39943e-06
smoothSolver:  Solving for omega, Initial residual = 0.00195472, Final residual = 4.6853e-09, No Iterations 2
smoothSolver:  Solving for k, Initial residual = 0.0372077, Final residual = 5.1317e-08, No Iterations 2
ExecutionTime = 0.46 s  ClockTime = 1 s

Courant Number mean: 0.0130691 max: 0.491976
deltaT = 4.37693e-05
Time = 0.00043687

PIMPLE: iteration 1
smoothSolver:  Solving for Ux, Initial residual = 1.08594e-06, Final residual = 5.64363e-14, No Iterations 1
smoothSolver:  Solving for Uy, Initial residual = 9.50923e-07, Final residual = 9.50923e-07, No Iterations 0
smoothSolver:  Solving for Uz, Initial residual = 9.09134e-07, Final residual = 9.09134e-07, No Iterations 0
GAMG:  Solving for p, Initial residual = 0.999983, Final residual = 0.0403064, No Iterations 1
GAMG:  Solving for p, Initial residual = 0.047445, Final residual = 0.00227667, No Iterations 2
time step continuity errors : sum local = 3.63011e-06, global = 2.72803e-07, cumulative = 2.67223e-06
GAMG:  Solving for p, Initial residual = 0.999765, Final residual = 0.0402977, No Iterations 1
GAMG:  Solving for p, Initial residual = 0.0474396, Final residual = 7.85396e-07, No Iterations 11
time step continuity errors : sum local = 1.25232e-09, global = 6.38986e-11, cumulative = 2.6723e-06
PIMPLE: iteration 2
smoothSolver:  Solving for Ux, Initial residual = 0.0830654, Final residual = 4.63534e-08, No Iterations 2
smoothSolver:  Solving for Uy, Initial residual = 0.0575811, Final residual = 2.69219e-08, No Iterations 2
smoothSolver:  Solving for Uz, Initial residual = 0.0552272, Final residual = 2.65609e-08, No Iterations 2
GAMG:  Solving for p, Initial residual = 0.621092, Final residual = 0.0251054, No Iterations 1
GAMG:  Solving for p, Initial residual = 0.169466, Final residual = 0.00808571, No Iterations 2
time step continuity errors : sum local = 3.71044e-06, global = -2.79207e-07, cumulative = 2.39309e-06
GAMG:  Solving for p, Initial residual = 0.245546, Final residual = 0.0129967, No Iterations 1
GAMG:  Solving for p, Initial residual = 0.0376785, Final residual = 8.91805e-07, No Iterations 11
time step continuity errors : sum local = 1.38211e-10, global = -7.53826e-12, cumulative = 2.39308e-06
smoothSolver:  Solving for omega, Initial residual = 0.00188615, Final residual = 4.79255e-09, No Iterations 2
smoothSolver:  Solving for k, Initial residual = 0.0327365, Final residual = 4.78109e-08, No Iterations 2
ExecutionTime = 0.49 s  ClockTime = 1 s

Courant Number mean: 0.0132796 max: 0.492278
deltaT = 4.44559e-05
Time = 0.000481326

PIMPLE: iteration 1
smoothSolver:  Solving for Ux, Initial residual = 1.08208e-06, Final residual = 5.65051e-14, No Iterations 1
smoothSolver:  Solving for Uy, Initial residual = 9.38887e-07, Final residual = 9.38887e-07, No Iterations 0
smoothSolver:  Solving for Uz, Initial residual = 8.96879e-07, Final residual = 8.96879e-07, No Iterations 0
GAMG:  Solving for p, Initial residual = 0.999983, Final residual = 0.0401084, No Iterations 1
GAMG:  Solving for p, Initial residual = 0.0472573, Final residual = 0.00222899, No Iterations 2
time step continuity errors : sum local = 3.47491e-06, global = 2.61115e-07, cumulative = 2.6542e-06
GAMG:  Solving for p, Initial residual = 0.999766, Final residual = 0.0400998, No Iterations 1
GAMG:  Solving for p, Initial residual = 0.0472519, Final residual = 7.68837e-07, No Iterations 11
time step continuity errors : sum local = 1.1986e-09, global = 6.11888e-11, cumulative = 2.65426e-06
PIMPLE: iteration 2
smoothSolver:  Solving for Ux, Initial residual = 0.0790248, Final residual = 4.55037e-08, No Iterations 2
smoothSolver:  Solving for Uy, Initial residual = 0.0557699, Final residual = 2.68696e-08, No Iterations 2
smoothSolver:  Solving for Uz, Initial residual = 0.0534471, Final residual = 2.65972e-08, No Iterations 2
GAMG:  Solving for p, Initial residual = 0.629504, Final residual = 0.025329, No Iterations 1
GAMG:  Solving for p, Initial residual = 0.173553, Final residual = 0.00814697, No Iterations 2
time step continuity errors : sum local = 3.54922e-06, global = -2.67079e-07, cumulative = 2.38718e-06
GAMG:  Solving for p, Initial residual = 0.247681, Final residual = 0.0131463, No Iterations 1
GAMG:  Solving for p, Initial residual = 0.0383154, Final residual = 9.06747e-07, No Iterations 11
time step continuity errors : sum local = 1.31908e-10, global = -7.19631e-12, cumulative = 2.38717e-06
smoothSolver:  Solving for omega, Initial residual = 0.00181983, Final residual = 4.90134e-09, No Iterations 2
smoothSolver:  Solving for k, Initial residual = 0.0291187, Final residual = 4.48886e-08, No Iterations 2
ExecutionTime = 0.52 s  ClockTime = 1 s

Courant Number mean: 0.0134854 max: 0.492543
deltaT = 4.51289e-05
Time = 0.000526454

PIMPLE: iteration 1
smoothSolver:  Solving for Ux, Initial residual = 1.0807e-06, Final residual = 5.66847e-14, No Iterations 1
smoothSolver:  Solving for Uy, Initial residual = 9.29628e-07, Final residual = 9.29628e-07, No Iterations 0
smoothSolver:  Solving for Uz, Initial residual = 8.87391e-07, Final residual = 8.87391e-07, No Iterations 0
GAMG:  Solving for p, Initial residual = 0.999983, Final residual = 0.0399341, No Iterations 1
GAMG:  Solving for p, Initial residual = 0.0470957, Final residual = 0.00218568, No Iterations 2
time step continuity errors : sum local = 3.3355e-06, global = 2.50567e-07, cumulative = 2.63774e-06
GAMG:  Solving for p, Initial residual = 0.999768, Final residual = 0.0399255, No Iterations 1
GAMG:  Solving for p, Initial residual = 0.0470904, Final residual = 7.53756e-07, No Iterations 11
time step continuity errors : sum local = 1.1503e-09, global = 5.87537e-11, cumulative = 2.6378e-06
PIMPLE: iteration 2
smoothSolver:  Solving for Ux, Initial residual = 0.0754891, Final residual = 4.47921e-08, No Iterations 2
smoothSolver:  Solving for Uy, Initial residual = 0.054155, Final residual = 2.68522e-08, No Iterations 2
smoothSolver:  Solving for Uz, Initial residual = 0.0518595, Final residual = 2.67521e-08, No Iterations 2
GAMG:  Solving for p, Initial residual = 0.637242, Final residual = 0.0255335, No Iterations 1
GAMG:  Solving for p, Initial residual = 0.177485, Final residual = 0.00820362, No Iterations 2
time step continuity errors : sum local = 3.40461e-06, global = -2.5617e-07, cumulative = 2.38163e-06
GAMG:  Solving for p, Initial residual = 0.249476, Final residual = 0.01328, No Iterations 1
GAMG:  Solving for p, Initial residual = 0.03891, Final residual = 9.19995e-07, No Iterations 11
time step continuity errors : sum local = 1.26209e-10, global = -6.88187e-12, cumulative = 2.38162e-06
smoothSolver:  Solving for omega, Initial residual = 0.0017559, Final residual = 5.01487e-09, No Iterations 2
smoothSolver:  Solving for k, Initial residual = 0.0261331, Final residual = 4.21863e-08, No Iterations 2
ExecutionTime = 0.56 s  ClockTime = 1 s

Courant Number mean: 0.0136872 max: 0.492813
deltaT = 4.5787e-05
Time = 0.000572242

PIMPLE: iteration 1
smoothSolver:  Solving for Ux, Initial residual = 1.08068e-06, Final residual = 5.68911e-14, No Iterations 1
smoothSolver:  Solving for Uy, Initial residual = 9.22692e-07, Final residual = 9.22692e-07, No Iterations 0
smoothSolver:  Solving for Uz, Initial residual = 8.80001e-07, Final residual = 8.80001e-07, No Iterations 0
GAMG:  Solving for p, Initial residual = 0.999984, Final residual = 0.0397779, No Iterations 1
GAMG:  Solving for p, Initial residual = 0.046957, Final residual = 0.00214614, No Iterations 2
time step continuity errors : sum local = 3.2093e-06, global = 2.40989e-07, cumulative = 2.62261e-06
GAMG:  Solving for p, Initial residual = 0.999769, Final residual = 0.0397694, No Iterations 1
GAMG:  Solving for p, Initial residual = 0.0469517, Final residual = 7.39985e-07, No Iterations 11
time step continuity errors : sum local = 1.10658e-09, global = 5.65511e-11, cumulative = 2.62267e-06
PIMPLE: iteration 2
smoothSolver:  Solving for Ux, Initial residual = 0.0723788, Final residual = 4.42747e-08, No Iterations 2
smoothSolver:  Solving for Uy, Initial residual = 0.052706, Final residual = 2.69197e-08, No Iterations 2
smoothSolver:  Solving for Uz, Initial residual = 0.0504371, Final residual = 2.70076e-08, No Iterations 2
GAMG:  Solving for p, Initial residual = 0.644334, Final residual = 0.025722, No Iterations 1
GAMG:  Solving for p, Initial residual = 0.181256, Final residual = 0.00825591, No Iterations 2
time step continuity errors : sum local = 3.27393e-06, global = -2.46287e-07, cumulative = 2.37638e-06
GAMG:  Solving for p, Initial residual = 0.250929, Final residual = 0.0133924, No Iterations 1
GAMG:  Solving for p, Initial residual = 0.0394398, Final residual = 9.32358e-07, No Iterations 11
time step continuity errors : sum local = 1.21135e-10, global = -6.60804e-12, cumulative = 2.37637e-06
smoothSolver:  Solving for omega, Initial residual = 0.00169419, Final residual = 5.1318e-09, No Iterations 2
smoothSolver:  Solving for k, Initial residual = 0.0236306, Final residual = 3.98682e-08, No Iterations 2
ExecutionTime = 0.59 s  ClockTime = 1 s

Courant Number mean: 0.0138845 max: 0.49321
deltaT = 4.64174e-05
Time = 0.000618659

PIMPLE: iteration 1
smoothSolver:  Solving for Ux, Initial residual = 1.0815e-06, Final residual = 5.70963e-14, No Iterations 1
smoothSolver:  Solving for Uy, Initial residual = 9.16965e-07, Final residual = 9.16965e-07, No Iterations 0
smoothSolver:  Solving for Uz, Initial residual = 8.74058e-07, Final residual = 8.74058e-07, No Iterations 0
GAMG:  Solving for p, Initial residual = 0.999984, Final residual = 0.039638, No Iterations 1
GAMG:  Solving for p, Initial residual = 0.0468391, Final residual = 0.00210994, No Iterations 2
time step continuity errors : sum local = 3.09365e-06, global = 2.32185e-07, cumulative = 2.60856e-06
GAMG:  Solving for p, Initial residual = 0.99977, Final residual = 0.0396296, No Iterations 1
GAMG:  Solving for p, Initial residual = 0.0468338, Final residual = 7.27373e-07, No Iterations 11
time step continuity errors : sum local = 1.06651e-09, global = 5.45337e-11, cumulative = 2.60861e-06
PIMPLE: iteration 2
smoothSolver:  Solving for Ux, Initial residual = 0.0696223, Final residual = 4.38012e-08, No Iterations 2
smoothSolver:  Solving for Uy, Initial residual = 0.0513977, Final residual = 2.69897e-08, No Iterations 2
smoothSolver:  Solving for Uz, Initial residual = 0.0491538, Final residual = 2.72698e-08, No Iterations 2
GAMG:  Solving for p, Initial residual = 0.650884, Final residual = 0.0258956, No Iterations 1
GAMG:  Solving for p, Initial residual = 0.184872, Final residual = 0.00830436, No Iterations 2
time step continuity errors : sum local = 3.15424e-06, global = -2.3721e-07, cumulative = 2.3714e-06
GAMG:  Solving for p, Initial residual = 0.252094, Final residual = 0.01349, No Iterations 1
GAMG:  Solving for p, Initial residual = 0.0399235, Final residual = 9.43463e-07, No Iterations 11
time step continuity errors : sum local = 1.16494e-10, global = -6.35611e-12, cumulative = 2.3714e-06
smoothSolver:  Solving for omega, Initial residual = 0.00163377, Final residual = 5.24578e-09, No Iterations 2
smoothSolver:  Solving for k, Initial residual = 0.0215008, Final residual = 3.79126e-08, No Iterations 2
ExecutionTime = 0.62 s  ClockTime = 1 s

Courant Number mean: 0.0140735 max: 0.493644
deltaT = 4.7015e-05
Time = 0.000665674

PIMPLE: iteration 1
smoothSolver:  Solving for Ux, Initial residual = 1.08218e-06, Final residual = 5.72519e-14, No Iterations 1
smoothSolver:  Solving for Uy, Initial residual = 9.12301e-07, Final residual = 9.12301e-07, No Iterations 0
smoothSolver:  Solving for Uz, Initial residual = 8.69055e-07, Final residual = 8.69055e-07, No Iterations 0
GAMG:  Solving for p, Initial residual = 0.999984, Final residual = 0.0395111, No Iterations 1
GAMG:  Solving for p, Initial residual = 0.0467448, Final residual = 0.00207678, No Iterations 2
time step continuity errors : sum local = 2.98681e-06, global = 2.24034e-07, cumulative = 2.59543e-06
GAMG:  Solving for p, Initial residual = 0.99977, Final residual = 0.0395027, No Iterations 1
GAMG:  Solving for p, Initial residual = 0.0467396, Final residual = 7.15819e-07, No Iterations 11
time step continuity errors : sum local = 1.0295e-09, global = 5.26713e-11, cumulative = 2.59548e-06
PIMPLE: iteration 2
smoothSolver:  Solving for Ux, Initial residual = 0.0671654, Final residual = 4.35242e-08, No Iterations 2
smoothSolver:  Solving for Uy, Initial residual = 0.0502145, Final residual = 2.70661e-08, No Iterations 2
smoothSolver:  Solving for Uz, Initial residual = 0.0479933, Final residual = 2.7514e-08, No Iterations 2
GAMG:  Solving for p, Initial residual = 0.656933, Final residual = 0.0260574, No Iterations 1
GAMG:  Solving for p, Initial residual = 0.188352, Final residual = 0.00834933, No Iterations 2
time step continuity errors : sum local = 3.04394e-06, global = -2.28819e-07, cumulative = 2.36666e-06
GAMG:  Solving for p, Initial residual = 0.252984, Final residual = 0.0135738, No Iterations 1
GAMG:  Solving for p, Initial residual = 0.0403605, Final residual = 9.53305e-07, No Iterations 11
time step continuity errors : sum local = 1.12218e-10, global = -6.12324e-12, cumulative = 2.36666e-06
smoothSolver:  Solving for omega, Initial residual = 0.00157468, Final residual = 5.35125e-09, No Iterations 2
smoothSolver:  Solving for k, Initial residual = 0.0196633, Final residual = 3.60803e-08, No Iterations 2
ExecutionTime = 0.65 s  ClockTime = 1 s

Courant Number mean: 0.0142527 max: 0.494001
deltaT = 4.7586e-05
Time = 0.00071326

PIMPLE: iteration 1
smoothSolver:  Solving for Ux, Initial residual = 1.08266e-06, Final residual = 5.73529e-14, No Iterations 1
smoothSolver:  Solving for Uy, Initial residual = 9.08382e-07, Final residual = 9.08382e-07, No Iterations 0
smoothSolver:  Solving for Uz, Initial residual = 8.6494e-07, Final residual = 8.6494e-07, No Iterations 0
GAMG:  Solving for p, Initial residual = 0.999984, Final residual = 0.0393951, No Iterations 1
GAMG:  Solving for p, Initial residual = 0.0466669, Final residual = 0.00204922, No Iterations 2
time step continuity errors : sum local = 2.89217e-06, global = 2.16011e-07, cumulative = 2.58267e-06
GAMG:  Solving for p, Initial residual = 0.999771, Final residual = 0.0393867, No Iterations 1
GAMG:  Solving for p, Initial residual = 0.0466617, Final residual = 7.05195e-07, No Iterations 11
time step continuity errors : sum local = 9.9529e-10, global = 5.09509e-11, cumulative = 2.58272e-06
PIMPLE: iteration 2
smoothSolver:  Solving for Ux, Initial residual = 0.0649598, Final residual = 4.33009e-08, No Iterations 2
smoothSolver:  Solving for Uy, Initial residual = 0.049142, Final residual = 2.71494e-08, No Iterations 2
smoothSolver:  Solving for Uz, Initial residual = 0.0469427, Final residual = 2.7757e-08, No Iterations 2
GAMG:  Solving for p, Initial residual = 0.662568, Final residual = 0.0262088, No Iterations 1
GAMG:  Solving for p, Initial residual = 0.191681, Final residual = 0.00841707, No Iterations 2
time step continuity errors : sum local = 2.95144e-06, global = -2.23554e-07, cumulative = 2.35917e-06
GAMG:  Solving for p, Initial residual = 0.253226, Final residual = 0.0136302, No Iterations 1
GAMG:  Solving for p, Initial residual = 0.0407914, Final residual = 9.62971e-07, No Iterations 11
time step continuity errors : sum local = 1.08466e-10, global = -5.92675e-12, cumulative = 2.35916e-06
smoothSolver:  Solving for omega, Initial residual = 0.00151751, Final residual = 5.44301e-09, No Iterations 2
smoothSolver:  Solving for k, Initial residual = 0.018072, Final residual = 3.44764e-08, No Iterations 2
ExecutionTime = 0.68 s  ClockTime = 1 s

Courant Number mean: 0.0144239 max: 0.494364
deltaT = 4.81284e-05
Time = 0.000761388

PIMPLE: iteration 1
smoothSolver:  Solving for Ux, Initial residual = 1.08284e-06, Final residual = 5.74044e-14, No Iterations 1
smoothSolver:  Solving for Uy, Initial residual = 9.05108e-07, Final residual = 9.05108e-07, No Iterations 0
smoothSolver:  Solving for Uz, Initial residual = 8.61404e-07, Final residual = 8.61404e-07, No Iterations 0
GAMG:  Solving for p, Initial residual = 0.999985, Final residual = 0.0392891, No Iterations 1
GAMG:  Solving for p, Initial residual = 0.0466047, Final residual = 0.00465671, No Iterations 1
time step continuity errors : sum local = 6.45187e-06, global = 3.13209e-07, cumulative = 2.67237e-06
GAMG:  Solving for p, Initial residual = 0.999777, Final residual = 0.0392812, No Iterations 1
GAMG:  Solving for p, Initial residual = 0.0465998, Final residual = 6.95431e-07, No Iterations 11
time step continuity errors : sum local = 9.63527e-10, global = 4.93538e-11, cumulative = 2.67242e-06
PIMPLE: iteration 2
smoothSolver:  Solving for Ux, Initial residual = 0.062973, Final residual = 4.31232e-08, No Iterations 2
smoothSolver:  Solving for Uy, Initial residual = 0.048166, Final residual = 2.72448e-08, No Iterations 2
smoothSolver:  Solving for Uz, Initial residual = 0.0459859, Final residual = 2.80038e-08, No Iterations 2
GAMG:  Solving for p, Initial residual = 0.667761, Final residual = 0.0263472, No Iterations 1
GAMG:  Solving for p, Initial residual = 0.194856, Final residual = 0.00845428, No Iterations 2
time step continuity errors : sum local = 2.85637e-06, global = -2.16175e-07, cumulative = 2.45624e-06
GAMG:  Solving for p, Initial residual = 0.253642, Final residual = 0.0136876, No Iterations 1
GAMG:  Solving for p, Initial residual = 0.0411509, Final residual = 9.70972e-07, No Iterations 11
time step continuity errors : sum local = 1.04828e-10, global = -5.72926e-12, cumulative = 2.45624e-06
smoothSolver:  Solving for omega, Initial residual = 0.0014622, Final residual = 5.52347e-09, No Iterations 2
smoothSolver:  Solving for k, Initial residual = 0.0166774, Final residual = 3.30058e-08, No Iterations 2
ExecutionTime = 0.71 s  ClockTime = 1 s

Courant Number mean: 0.0145865 max: 0.496787
deltaT = 4.84397e-05
Time = 0.000809828

PIMPLE: iteration 1
smoothSolver:  Solving for Ux, Initial residual = 1.07823e-06, Final residual = 5.69579e-14, No Iterations 1
smoothSolver:  Solving for Uy, Initial residual = 8.98495e-07, Final residual = 8.98495e-07, No Iterations 0
smoothSolver:  Solving for Uz, Initial residual = 8.54755e-07, Final residual = 8.54755e-07, No Iterations 0
GAMG:  Solving for p, Initial residual = 0.999985, Final residual = 0.0391936, No Iterations 1
GAMG:  Solving for p, Initial residual = 0.0465567, Final residual = 0.00460405, No Iterations 1
time step continuity errors : sum local = 6.23741e-06, global = 3.04056e-07, cumulative = 2.76029e-06
GAMG:  Solving for p, Initial residual = 0.999778, Final residual = 0.0391857, No Iterations 1
GAMG:  Solving for p, Initial residual = 0.0465517, Final residual = 6.86453e-07, No Iterations 11
time step continuity errors : sum local = 9.2999e-10, global = 4.7665e-11, cumulative = 2.76034e-06
PIMPLE: iteration 2
smoothSolver:  Solving for Ux, Initial residual = 0.0611703, Final residual = 4.25473e-08, No Iterations 2
smoothSolver:  Solving for Uy, Initial residual = 0.0472546, Final residual = 2.70698e-08, No Iterations 2
smoothSolver:  Solving for Uz, Initial residual = 0.0450917, Final residual = 2.79486e-08, No Iterations 2
GAMG:  Solving for p, Initial residual = 0.672493, Final residual = 0.0264728, No Iterations 1
GAMG:  Solving for p, Initial residual = 0.197863, Final residual = 0.0196055, No Iterations 1
time step continuity errors : sum local = 6.36537e-06, global = -2.99546e-07, cumulative = 2.46079e-06
GAMG:  Solving for p, Initial residual = 0.119312, Final residual = 0.00637287, No Iterations 2
GAMG:  Solving for p, Initial residual = 0.148251, Final residual = 4.61122e-07, No Iterations 12
time step continuity errors : sum local = 4.51661e-11, global = -2.39376e-12, cumulative = 2.46079e-06
smoothSolver:  Solving for omega, Initial residual = 0.00140298, Final residual = 5.49008e-09, No Iterations 2
smoothSolver:  Solving for k, Initial residual = 0.0153778, Final residual = 3.11788e-08, No Iterations 2
ExecutionTime = 0.75 s  ClockTime = 1 s

Courant Number mean: 0.0146793 max: 0.498492
deltaT = 4.85862e-05
Time = 0.000858414

PIMPLE: iteration 1
smoothSolver:  Solving for Ux, Initial residual = 1.07399e-06, Final residual = 5.64271e-14, No Iterations 1
smoothSolver:  Solving for Uy, Initial residual = 8.89573e-07, Final residual = 8.89573e-07, No Iterations 0
smoothSolver:  Solving for Uz, Initial residual = 8.46768e-07, Final residual = 8.46768e-07, No Iterations 0
GAMG:  Solving for p, Initial residual = 0.999985, Final residual = 0.0390948, No Iterations 1
GAMG:  Solving for p, Initial residual = 0.0465004, Final residual = 0.00454421, No Iterations 1
time step continuity errors : sum local = 6.00135e-06, global = 2.94705e-07, cumulative = 2.7555e-06
GAMG:  Solving for p, Initial residual = 0.999779, Final residual = 0.0390868, No Iterations 1
GAMG:  Solving for p, Initial residual = 0.0464955, Final residual = 6.76163e-07, No Iterations 11
time step continuity errors : sum local = 8.92988e-10, global = 4.58094e-11, cumulative = 2.75554e-06
PIMPLE: iteration 2
smoothSolver:  Solving for Ux, Initial residual = 0.0594193, Final residual = 4.15369e-08, No Iterations 2
smoothSolver:  Solving for Uy, Initial residual = 0.0464058, Final residual = 2.67031e-08, No Iterations 2
smoothSolver:  Solving for Uz, Initial residual = 0.044254, Final residual = 2.76967e-08, No Iterations 2
GAMG:  Solving for p, Initial residual = 0.67801, Final residual = 0.0266188, No Iterations 1
GAMG:  Solving for p, Initial residual = 0.20156, Final residual = 0.0197114, No Iterations 1
time step continuity errors : sum local = 6.1206e-06, global = -2.90353e-07, cumulative = 2.46519e-06
GAMG:  Solving for p, Initial residual = 0.118813, Final residual = 0.00637692, No Iterations 2
GAMG:  Solving for p, Initial residual = 0.145757, Final residual = 4.5201e-07, No Iterations 12
time step continuity errors : sum local = 4.32933e-11, global = -2.29588e-12, cumulative = 2.46519e-06
smoothSolver:  Solving for omega, Initial residual = 0.00134296, Final residual = 5.3906e-09, No Iterations 2
smoothSolver:  Solving for k, Initial residual = 0.0141922, Final residual = 2.92182e-08, No Iterations 2
ExecutionTime = 0.78 s  ClockTime = 1 s

Courant Number mean: 0.0147222 max: 0.498485
deltaT = 4.87339e-05
Time = 0.000907148

PIMPLE: iteration 1
smoothSolver:  Solving for Ux, Initial residual = 1.06638e-06, Final residual = 5.56885e-14, No Iterations 1
smoothSolver:  Solving for Uy, Initial residual = 8.81823e-07, Final residual = 8.81823e-07, No Iterations 0
smoothSolver:  Solving for Uz, Initial residual = 8.39023e-07, Final residual = 8.39023e-07, No Iterations 0
GAMG:  Solving for p, Initial residual = 0.999985, Final residual = 0.0390051, No Iterations 1
GAMG:  Solving for p, Initial residual = 0.0464552, Final residual = 0.00448895, No Iterations 1
time step continuity errors : sum local = 5.78534e-06, global = 2.86197e-07, cumulative = 2.75138e-06
GAMG:  Solving for p, Initial residual = 0.999779, Final residual = 0.0389972, No Iterations 1
GAMG:  Solving for p, Initial residual = 0.0464503, Final residual = 6.6656e-07, No Iterations 11
time step continuity errors : sum local = 8.59065e-10, global = 4.411e-11, cumulative = 2.75143e-06
PIMPLE: iteration 2
smoothSolver:  Solving for Ux, Initial residual = 0.0577888, Final residual = 4.07712e-08, No Iterations 2
smoothSolver:  Solving for Uy, Initial residual = 0.0455971, Final residual = 2.64291e-08, No Iterations 2
smoothSolver:  Solving for Uz, Initial residual = 0.0434589, Final residual = 2.75027e-08, No Iterations 2
GAMG:  Solving for p, Initial residual = 0.682748, Final residual = 0.0267458, No Iterations 1
GAMG:  Solving for p, Initial residual = 0.204791, Final residual = 0.0198155, No Iterations 1
time step continuity errors : sum local = 5.89807e-06, global = -2.81598e-07, cumulative = 2.46983e-06
GAMG:  Solving for p, Initial residual = 0.118489, Final residual = 0.00638177, No Iterations 2
GAMG:  Solving for p, Initial residual = 0.143343, Final residual = 4.43676e-07, No Iterations 12
time step continuity errors : sum local = 4.16234e-11, global = -2.20773e-12, cumulative = 2.46983e-06
smoothSolver:  Solving for omega, Initial residual = 0.00128673, Final residual = 5.29236e-09, No Iterations 2
smoothSolver:  Solving for k, Initial residual = 0.0131469, Final residual = 2.74704e-08, No Iterations 2
ExecutionTime = 0.81 s  ClockTime = 1 s

Courant Number mean: 0.0147656 max: 0.498478
deltaT = 4.88827e-05
Time = 0.000956031

PIMPLE: iteration 1
smoothSolver:  Solving for Ux, Initial residual = 1.05906e-06, Final residual = 5.50153e-14, No Iterations 1
smoothSolver:  Solving for Uy, Initial residual = 8.74626e-07, Final residual = 8.74626e-07, No Iterations 0
smoothSolver:  Solving for Uz, Initial residual = 8.31877e-07, Final residual = 8.31877e-07, No Iterations 0
GAMG:  Solving for p, Initial residual = 0.999985, Final residual = 0.0389238, No Iterations 1
GAMG:  Solving for p, Initial residual = 0.0464197, Final residual = 0.00443798, No Iterations 1
time step continuity errors : sum local = 5.58715e-06, global = 2.78418e-07, cumulative = 2.74825e-06
GAMG:  Solving for p, Initial residual = 0.99978, Final residual = 0.0389159, No Iterations 1
GAMG:  Solving for p, Initial residual = 0.0464148, Final residual = 6.57596e-07, No Iterations 11
time step continuity errors : sum local = 8.27879e-10, global = 4.25488e-11, cumulative = 2.74829e-06
PIMPLE: iteration 2
smoothSolver:  Solving for Ux, Initial residual = 0.0563011, Final residual = 4.0103e-08, No Iterations 2
smoothSolver:  Solving for Uy, Initial residual = 0.0448569, Final residual = 2.61987e-08, No Iterations 2
smoothSolver:  Solving for Uz, Initial residual = 0.0427291, Final residual = 2.7339e-08, No Iterations 2
GAMG:  Solving for p, Initial residual = 0.687163, Final residual = 0.026864, No Iterations 1
GAMG:  Solving for p, Initial residual = 0.207919, Final residual = 0.0199166, No Iterations 1
time step continuity errors : sum local = 5.69376e-06, global = -2.73628e-07, cumulative = 2.47466e-06
GAMG:  Solving for p, Initial residual = 0.11814, Final residual = 0.00638453, No Iterations 2
GAMG:  Solving for p, Initial residual = 0.141075, Final residual = 4.35853e-07, No Iterations 12
time step continuity errors : sum local = 4.00902e-11, global = -2.12677e-12, cumulative = 2.47466e-06
smoothSolver:  Solving for omega, Initial residual = 0.00123417, Final residual = 5.196e-09, No Iterations 2
smoothSolver:  Solving for k, Initial residual = 0.0122209, Final residual = 2.59279e-08, No Iterations 2
ExecutionTime = 0.85 s  ClockTime = 1 s

Courant Number mean: 0.0148093 max: 0.498496
deltaT = 4.90302e-05
Time = 0.00100506

PIMPLE: iteration 1
smoothSolver:  Solving for Ux, Initial residual = 1.05187e-06, Final residual = 5.4359e-14, No Iterations 1
smoothSolver:  Solving for Uy, Initial residual = 8.67899e-07, Final residual = 8.67899e-07, No Iterations 0
smoothSolver:  Solving for Uz, Initial residual = 8.25193e-07, Final residual = 8.25193e-07, No Iterations 0
GAMG:  Solving for p, Initial residual = 0.999985, Final residual = 0.0388506, No Iterations 1
GAMG:  Solving for p, Initial residual = 0.0463942, Final residual = 0.00439123, No Iterations 1
time step continuity errors : sum local = 5.4048e-06, global = 2.71291e-07, cumulative = 2.74595e-06
GAMG:  Solving for p, Initial residual = 0.99978, Final residual = 0.0388428, No Iterations 1
GAMG:  Solving for p, Initial residual = 0.0463894, Final residual = 6.49228e-07, No Iterations 11
time step continuity errors : sum local = 7.99086e-10, global = 4.11091e-11, cumulative = 2.74599e-06
PIMPLE: iteration 2
smoothSolver:  Solving for Ux, Initial residual = 0.0549368, Final residual = 3.95106e-08, No Iterations 2
smoothSolver:  Solving for Uy, Initial residual = 0.0441789, Final residual = 2.59924e-08, No Iterations 2
smoothSolver:  Solving for Uz, Initial residual = 0.0420573, Final residual = 2.71955e-08, No Iterations 2
GAMG:  Solving for p, Initial residual = 0.69126, Final residual = 0.0269776, No Iterations 1
GAMG:  Solving for p, Initial residual = 0.21095, Final residual = 0.020016, No Iterations 1
time step continuity errors : sum local = 5.50572e-06, global = -2.66325e-07, cumulative = 2.47967e-06
GAMG:  Solving for p, Initial residual = 0.117772, Final residual = 0.006385, No Iterations 2
GAMG:  Solving for p, Initial residual = 0.13893, Final residual = 4.28455e-07, No Iterations 12
time step continuity errors : sum local = 3.86752e-11, global = -2.05205e-12, cumulative = 2.47966e-06
smoothSolver:  Solving for omega, Initial residual = 0.00118477, Final residual = 5.0857e-09, No Iterations 2
smoothSolver:  Solving for k, Initial residual = 0.0113941, Final residual = 2.45248e-08, No Iterations 2
ExecutionTime = 0.88 s  ClockTime = 1 s

Courant Number mean: 0.0148528 max: 0.498559
deltaT = 4.91719e-05
Time = 0.00105423

PIMPLE: iteration 1
smoothSolver:  Solving for Ux, Initial residual = 1.0446e-06, Final residual = 5.37139e-14, No Iterations 1
smoothSolver:  Solving for Uy, Initial residual = 8.6147e-07, Final residual = 8.6147e-07, No Iterations 0
smoothSolver:  Solving for Uz, Initial residual = 8.18828e-07, Final residual = 8.18828e-07, No Iterations 0
GAMG:  Solving for p, Initial residual = 0.999985, Final residual = 0.0387864, No Iterations 1
GAMG:  Solving for p, Initial residual = 0.0463794, Final residual = 0.00434856, No Iterations 1
time step continuity errors : sum local = 5.23621e-06, global = 2.64737e-07, cumulative = 2.7444e-06
GAMG:  Solving for p, Initial residual = 0.99978, Final residual = 0.0387786, No Iterations 1
GAMG:  Solving for p, Initial residual = 0.0463745, Final residual = 6.4142e-07, No Iterations 11
time step continuity errors : sum local = 7.72356e-10, global = 3.97742e-11, cumulative = 2.74444e-06
PIMPLE: iteration 2
smoothSolver:  Solving for Ux, Initial residual = 0.0536779, Final residual = 3.8972e-08, No Iterations 2
smoothSolver:  Solving for Uy, Initial residual = 0.0435548, Final residual = 2.58418e-08, No Iterations 2
smoothSolver:  Solving for Uz, Initial residual = 0.0414392, Final residual = 2.70591e-08, No Iterations 2
GAMG:  Solving for p, Initial residual = 0.695102, Final residual = 0.0270845, No Iterations 1
GAMG:  Solving for p, Initial residual = 0.213897, Final residual = 0.0201143, No Iterations 1
time step continuity errors : sum local = 5.33165e-06, global = -2.59609e-07, cumulative = 2.48483e-06
GAMG:  Solving for p, Initial residual = 0.117386, Final residual = 0.00638385, No Iterations 2
GAMG:  Solving for p, Initial residual = 0.136933, Final residual = 4.2156e-07, No Iterations 12
time step continuity errors : sum local = 3.73632e-11, global = -1.98274e-12, cumulative = 2.48483e-06
smoothSolver:  Solving for omega, Initial residual = 0.00113828, Final residual = 4.96952e-09, No Iterations 2
smoothSolver:  Solving for k, Initial residual = 0.0106509, Final residual = 2.32754e-08, No Iterations 2
ExecutionTime = 0.92 s  ClockTime = 1 s

Courant Number mean: 0.0148945 max: 0.498585
deltaT = 4.93115e-05
Time = 0.00110354

PIMPLE: iteration 1
smoothSolver:  Solving for Ux, Initial residual = 1.0373e-06, Final residual = 5.30994e-14, No Iterations 1
smoothSolver:  Solving for Uy, Initial residual = 8.55417e-07, Final residual = 8.55417e-07, No Iterations 0
smoothSolver:  Solving for Uz, Initial residual = 8.12777e-07, Final residual = 8.12777e-07, No Iterations 0
GAMG:  Solving for p, Initial residual = 0.999985, Final residual = 0.0387286, No Iterations 1
GAMG:  Solving for p, Initial residual = 0.0463731, Final residual = 0.0043095, No Iterations 1
time step continuity errors : sum local = 5.08014e-06, global = 2.5873e-07, cumulative = 2.74356e-06
GAMG:  Solving for p, Initial residual = 0.999781, Final residual = 0.0387208, No Iterations 1
GAMG:  Solving for p, Initial residual = 0.0463682, Final residual = 6.34125e-07, No Iterations 11
time step continuity errors : sum local = 7.47526e-10, global = 3.85361e-11, cumulative = 2.7436e-06
PIMPLE: iteration 2
smoothSolver:  Solving for Ux, Initial residual = 0.0525169, Final residual = 3.85167e-08, No Iterations 2
smoothSolver:  Solving for Uy, Initial residual = 0.042979, Final residual = 2.57249e-08, No Iterations 2
smoothSolver:  Solving for Uz, Initial residual = 0.0408674, Final residual = 2.69346e-08, No Iterations 2
GAMG:  Solving for p, Initial residual = 0.698739, Final residual = 0.0271863, No Iterations 1
GAMG:  Solving for p, Initial residual = 0.216756, Final residual = 0.0202103, No Iterations 1
time step continuity errors : sum local = 5.17041e-06, global = -2.53432e-07, cumulative = 2.49017e-06
GAMG:  Solving for p, Initial residual = 0.11699, Final residual = 0.00638118, No Iterations 2
GAMG:  Solving for p, Initial residual = 0.135059, Final residual = 4.15098e-07, No Iterations 12
time step continuity errors : sum local = 3.61469e-11, global = -1.91848e-12, cumulative = 2.49016e-06
smoothSolver:  Solving for omega, Initial residual = 0.00109453, Final residual = 4.86074e-09, No Iterations 2
smoothSolver:  Solving for k, Initial residual = 0.00998144, Final residual = 2.21585e-08, No Iterations 2
ExecutionTime = 0.95 s  ClockTime = 1 s

Courant Number mean: 0.0149356 max: 0.498619
deltaT = 4.9448e-05
Time = 0.00115299

PIMPLE: iteration 1
smoothSolver:  Solving for Ux, Initial residual = 1.02998e-06, Final residual = 5.24881e-14, No Iterations 1
smoothSolver:  Solving for Uy, Initial residual = 8.49625e-07, Final residual = 8.49625e-07, No Iterations 0
smoothSolver:  Solving for Uz, Initial residual = 8.0703e-07, Final residual = 8.0703e-07, No Iterations 0
GAMG:  Solving for p, Initial residual = 0.999985, Final residual = 0.038678, No Iterations 1
GAMG:  Solving for p, Initial residual = 0.046374, Final residual = 0.00427392, No Iterations 1
time step continuity errors : sum local = 4.93549e-06, global = 2.53214e-07, cumulative = 2.74338e-06
GAMG:  Solving for p, Initial residual = 0.999781, Final residual = 0.0386702, No Iterations 1
GAMG:  Solving for p, Initial residual = 0.0463691, Final residual = 6.27297e-07, No Iterations 11
time step continuity errors : sum local = 7.24403e-10, global = 3.73849e-11, cumulative = 2.74342e-06
PIMPLE: iteration 2
smoothSolver:  Solving for Ux, Initial residual = 0.0514433, Final residual = 3.81183e-08, No Iterations 2
smoothSolver:  Solving for Uy, Initial residual = 0.0424497, Final residual = 2.56297e-08, No Iterations 2
smoothSolver:  Solving for Uz, Initial residual = 0.0403384, Final residual = 2.683e-08, No Iterations 2
GAMG:  Solving for p, Initial residual = 0.702136, Final residual = 0.0272836, No Iterations 1
GAMG:  Solving for p, Initial residual = 0.219545, Final residual = 0.0203051, No Iterations 1
time step continuity errors : sum local = 5.02082e-06, global = -2.47754e-07, cumulative = 2.49566e-06
GAMG:  Solving for p, Initial residual = 0.116579, Final residual = 0.00637674, No Iterations 2
GAMG:  Solving for p, Initial residual = 0.133294, Final residual = 9.85365e-07, No Iterations 11
time step continuity errors : sum local = 8.43564e-11, global = -4.7064e-12, cumulative = 2.49566e-06
smoothSolver:  Solving for omega, Initial residual = 0.00105324, Final residual = 4.75175e-09, No Iterations 2
smoothSolver:  Solving for k, Initial residual = 0.00937439, Final residual = 2.1183e-08, No Iterations 2
ExecutionTime = 0.98 s  ClockTime = 1 s

Courant Number mean: 0.0149759 max: 0.498661
deltaT = 4.95808e-05
Time = 0.00120257

PIMPLE: iteration 1
smoothSolver:  Solving for Ux, Initial residual = 1.02264e-06, Final residual = 5.1902e-14, No Iterations 1
smoothSolver:  Solving for Uy, Initial residual = 8.44088e-07, Final residual = 8.44088e-07, No Iterations 0
smoothSolver:  Solving for Uz, Initial residual = 8.01485e-07, Final residual = 8.01485e-07, No Iterations 0
GAMG:  Solving for p, Initial residual = 0.999986, Final residual = 0.0386321, No Iterations 1
GAMG:  Solving for p, Initial residual = 0.0463798, Final residual = 0.00424157, No Iterations 1
time step continuity errors : sum local = 4.80114e-06, global = 2.4814e-07, cumulative = 2.7438e-06
GAMG:  Solving for p, Initial residual = 0.999782, Final residual = 0.0386244, No Iterations 1
GAMG:  Solving for p, Initial residual = 0.046375, Final residual = 6.20882e-07, No Iterations 11
time step continuity errors : sum local = 7.02797e-10, global = 3.63111e-11, cumulative = 2.74383e-06
PIMPLE: iteration 2
smoothSolver:  Solving for Ux, Initial residual = 0.0504532, Final residual = 3.7774e-08, No Iterations 2
smoothSolver:  Solving for Uy, Initial residual = 0.0419621, Final residual = 2.55457e-08, No Iterations 2
smoothSolver:  Solving for Uz, Initial residual = 0.0398486, Final residual = 2.67455e-08, No Iterations 2
GAMG:  Solving for p, Initial residual = 0.705322, Final residual = 0.0273744, No Iterations 1
GAMG:  Solving for p, Initial residual = 0.222238, Final residual = 0.0203985, No Iterations 1
time step continuity errors : sum local = 4.88161e-06, global = -2.42498e-07, cumulative = 2.50134e-06
GAMG:  Solving for p, Initial residual = 0.116169, Final residual = 0.00637084, No Iterations 2
GAMG:  Solving for p, Initial residual = 0.131637, Final residual = 9.7158e-07, No Iterations 11
time step continuity errors : sum local = 8.18094e-11, global = -4.56535e-12, cumulative = 2.50133e-06
smoothSolver:  Solving for omega, Initial residual = 0.00101422, Final residual = 4.64923e-09, No Iterations 2
smoothSolver:  Solving for k, Initial residual = 0.00882247, Final residual = 2.02574e-08, No Iterations 2
ExecutionTime = 1.01 s  ClockTime = 1 s

Courant Number mean: 0.0150151 max: 0.498702
deltaT = 4.97098e-05
Time = 0.00125228

PIMPLE: iteration 1
smoothSolver:  Solving for Ux, Initial residual = 1.01525e-06, Final residual = 5.13258e-14, No Iterations 1
smoothSolver:  Solving for Uy, Initial residual = 8.38751e-07, Final residual = 8.38751e-07, No Iterations 0
smoothSolver:  Solving for Uz, Initial residual = 7.96109e-07, Final residual = 7.96109e-07, No Iterations 0
GAMG:  Solving for p, Initial residual = 0.999986, Final residual = 0.0385896, No Iterations 1
GAMG:  Solving for p, Initial residual = 0.0463918, Final residual = 0.00421194, No Iterations 1
time step continuity errors : sum local = 4.67567e-06, global = 2.4345e-07, cumulative = 2.74478e-06
GAMG:  Solving for p, Initial residual = 0.999782, Final residual = 0.0385819, No Iterations 1
GAMG:  Solving for p, Initial residual = 0.0463869, Final residual = 6.14858e-07, No Iterations 11
time step continuity errors : sum local = 6.82557e-10, global = 3.53067e-11, cumulative = 2.74482e-06
PIMPLE: iteration 2
smoothSolver:  Solving for Ux, Initial residual = 0.0495368, Final residual = 3.74616e-08, No Iterations 2
smoothSolver:  Solving for Uy, Initial residual = 0.0415132, Final residual = 2.54843e-08, No Iterations 2
smoothSolver:  Solving for Uz, Initial residual = 0.0393946, Final residual = 2.6669e-08, No Iterations 2
GAMG:  Solving for p, Initial residual = 0.708343, Final residual = 0.0274624, No Iterations 1
GAMG:  Solving for p, Initial residual = 0.22484, Final residual = 0.0204915, No Iterations 1
time step continuity errors : sum local = 4.75197e-06, global = -2.37675e-07, cumulative = 2.50714e-06
GAMG:  Solving for p, Initial residual = 0.11576, Final residual = 0.00636404, No Iterations 2
GAMG:  Solving for p, Initial residual = 0.130109, Final residual = 9.58812e-07, No Iterations 11
time step continuity errors : sum local = 7.943e-11, global = -4.4336e-12, cumulative = 2.50714e-06
smoothSolver:  Solving for omega, Initial residual = 0.000977315, Final residual = 4.53621e-09, No Iterations 2
smoothSolver:  Solving for k, Initial residual = 0.00831885, Final residual = 1.93941e-08, No Iterations 2
ExecutionTime = 1.04 s  ClockTime = 1 s

Courant Number mean: 0.0150532 max: 0.498742
deltaT = 4.98352e-05
Time = 0.00130212

PIMPLE: iteration 1
smoothSolver:  Solving for Ux, Initial residual = 1.00784e-06, Final residual = 5.07647e-14, No Iterations 1
smoothSolver:  Solving for Uy, Initial residual = 8.33616e-07, Final residual = 8.33616e-07, No Iterations 0
smoothSolver:  Solving for Uz, Initial residual = 7.90906e-07, Final residual = 7.90906e-07, No Iterations 0
GAMG:  Solving for p, Initial residual = 0.999986, Final residual = 0.0385518, No Iterations 1
GAMG:  Solving for p, Initial residual = 0.0464092, Final residual = 0.00418483, No Iterations 1
time step continuity errors : sum local = 4.55827e-06, global = 2.3912e-07, cumulative = 2.74626e-06
GAMG:  Solving for p, Initial residual = 0.999782, Final residual = 0.0385441, No Iterations 1
GAMG:  Solving for p, Initial residual = 0.0464044, Final residual = 6.092e-07, No Iterations 11
time step continuity errors : sum local = 6.63567e-10, global = 3.4366e-11, cumulative = 2.74629e-06
PIMPLE: iteration 2
smoothSolver:  Solving for Ux, Initial residual = 0.0486803, Final residual = 3.72153e-08, No Iterations 2
[...]
smoothSolver:  Solving for omega, Initial residual = 1.90463e-05, Final residual = 1.94758e-08, No Iterations 1
smoothSolver:  Solving for k, Initial residual = 0.000166169, Final residual = 1.62676e-07, No Iterations 1
ExecutionTime = 53.63 s  ClockTime = 53 s

Courant Number mean: 0.0200893 max: 0.499974
deltaT = 6.66735e-05
Time = 0.0996473

PIMPLE: iteration 1
smoothSolver:  Solving for Ux, Initial residual = 8.63273e-09, Final residual = 8.63273e-09, No Iterations 0
smoothSolver:  Solving for Uy, Initial residual = 3.06188e-08, Final residual = 3.06188e-08, No Iterations 0
smoothSolver:  Solving for Uz, Initial residual = 2.30484e-08, Final residual = 2.30484e-08, No Iterations 0
GAMG:  Solving for p, Initial residual = 0.999979, Final residual = 0.0447827, No Iterations 1
GAMG:  Solving for p, Initial residual = 0.053816, Final residual = 0.00201307, No Iterations 2
time step continuity errors : sum local = 2.16034e-07, global = -7.90782e-09, cumulative = 3.30921e-06
GAMG:  Solving for p, Initial residual = 0.999777, Final residual = 0.0447737, No Iterations 1
GAMG:  Solving for p, Initial residual = 0.0538106, Final residual = 7.85756e-07, No Iterations 11
time step continuity errors : sum local = 8.43243e-11, global = -4.57221e-12, cumulative = 3.30921e-06
PIMPLE: iteration 2
smoothSolver:  Solving for Ux, Initial residual = 0.00157903, Final residual = 8.93383e-09, No Iterations 2
smoothSolver:  Solving for Uy, Initial residual = 0.010088, Final residual = 4.88406e-08, No Iterations 2
smoothSolver:  Solving for Uz, Initial residual = 0.00692526, Final residual = 3.70879e-08, No Iterations 2
GAMG:  Solving for p, Initial residual = 0.726867, Final residual = 0.0328901, No Iterations 1
GAMG:  Solving for p, Initial residual = 0.276328, Final residual = 0.0105247, No Iterations 2
time step continuity errors : sum local = 2.20737e-07, global = 8.28163e-09, cumulative = 3.31749e-06
GAMG:  Solving for p, Initial residual = 0.117367, Final residual = 0.00885345, No Iterations 1
GAMG:  Solving for p, Initial residual = 0.0240922, Final residual = 7.41739e-07, No Iterations 11
time step continuity errors : sum local = 1.0058e-11, global = 5.48371e-13, cumulative = 3.31749e-06
smoothSolver:  Solving for omega, Initial residual = 1.90345e-05, Final residual = 1.94684e-08, No Iterations 1
smoothSolver:  Solving for k, Initial residual = 0.000166088, Final residual = 1.62628e-07, No Iterations 1
ExecutionTime = 53.66 s  ClockTime = 53 s

Courant Number mean: 0.0200903 max: 0.499974
deltaT = 6.6677e-05
Time = 0.099714

PIMPLE: iteration 1
smoothSolver:  Solving for Ux, Initial residual = 8.62896e-09, Final residual = 8.62896e-09, No Iterations 0
smoothSolver:  Solving for Uy, Initial residual = 3.06042e-08, Final residual = 3.06042e-08, No Iterations 0
smoothSolver:  Solving for Uz, Initial residual = 2.30411e-08, Final residual = 2.30411e-08, No Iterations 0
GAMG:  Solving for p, Initial residual = 0.999979, Final residual = 0.0447827, No Iterations 1
GAMG:  Solving for p, Initial residual = 0.0538171, Final residual = 0.00201304, No Iterations 2
time step continuity errors : sum local = 2.16053e-07, global = -7.90965e-09, cumulative = 3.30958e-06
GAMG:  Solving for p, Initial residual = 0.999777, Final residual = 0.0447737, No Iterations 1
GAMG:  Solving for p, Initial residual = 0.0538116, Final residual = 7.85686e-07, No Iterations 11
time step continuity errors : sum local = 8.43251e-11, global = -4.57235e-12, cumulative = 3.30957e-06
PIMPLE: iteration 2
smoothSolver:  Solving for Ux, Initial residual = 0.00157887, Final residual = 8.93245e-09, No Iterations 2
smoothSolver:  Solving for Uy, Initial residual = 0.0100871, Final residual = 4.88295e-08, No Iterations 2
smoothSolver:  Solving for Uz, Initial residual = 0.00692521, Final residual = 3.70823e-08, No Iterations 2
GAMG:  Solving for p, Initial residual = 0.726865, Final residual = 0.0328901, No Iterations 1
GAMG:  Solving for p, Initial residual = 0.276329, Final residual = 0.0105244, No Iterations 2
time step continuity errors : sum local = 2.20756e-07, global = 8.28364e-09, cumulative = 3.31786e-06
GAMG:  Solving for p, Initial residual = 0.117371, Final residual = 0.0088534, No Iterations 1
GAMG:  Solving for p, Initial residual = 0.0240928, Final residual = 7.41725e-07, No Iterations 11
time step continuity errors : sum local = 1.00586e-11, global = 5.48407e-13, cumulative = 3.31786e-06
smoothSolver:  Solving for omega, Initial residual = 1.90229e-05, Final residual = 1.9461e-08, No Iterations 1
smoothSolver:  Solving for k, Initial residual = 0.000166006, Final residual = 1.62579e-07, No Iterations 1
ExecutionTime = 53.69 s  ClockTime = 53 s

Courant Number mean: 0.0200913 max: 0.499974
deltaT = 6.66805e-05
Time = 0.0997807

PIMPLE: iteration 1
smoothSolver:  Solving for Ux, Initial residual = 8.62557e-09, Final residual = 8.62557e-09, No Iterations 0
smoothSolver:  Solving for Uy, Initial residual = 3.05889e-08, Final residual = 3.05889e-08, No Iterations 0
smoothSolver:  Solving for Uz, Initial residual = 2.30332e-08, Final residual = 2.30332e-08, No Iterations 0
GAMG:  Solving for p, Initial residual = 0.999979, Final residual = 0.0447827, No Iterations 1
GAMG:  Solving for p, Initial residual = 0.053818, Final residual = 0.00201302, No Iterations 2
time step continuity errors : sum local = 2.16072e-07, global = -7.9114e-09, cumulative = 3.30995e-06
GAMG:  Solving for p, Initial residual = 0.999777, Final residual = 0.0447737, No Iterations 1
GAMG:  Solving for p, Initial residual = 0.0538126, Final residual = 7.85617e-07, No Iterations 11
time step continuity errors : sum local = 8.43262e-11, global = -4.57249e-12, cumulative = 3.30994e-06
PIMPLE: iteration 2
smoothSolver:  Solving for Ux, Initial residual = 0.00157872, Final residual = 8.9311e-09, No Iterations 2
smoothSolver:  Solving for Uy, Initial residual = 0.0100862, Final residual = 4.88183e-08, No Iterations 2
smoothSolver:  Solving for Uz, Initial residual = 0.00692516, Final residual = 3.70769e-08, No Iterations 2
GAMG:  Solving for p, Initial residual = 0.72686, Final residual = 0.0328899, No Iterations 1
GAMG:  Solving for p, Initial residual = 0.276327, Final residual = 0.0105241, No Iterations 2
time step continuity errors : sum local = 2.20775e-07, global = 8.28561e-09, cumulative = 3.31823e-06
GAMG:  Solving for p, Initial residual = 0.117373, Final residual = 0.00885326, No Iterations 1
GAMG:  Solving for p, Initial residual = 0.024093, Final residual = 7.41705e-07, No Iterations 11
time step continuity errors : sum local = 1.00593e-11, global = 5.48447e-13, cumulative = 3.31823e-06
smoothSolver:  Solving for omega, Initial residual = 1.90112e-05, Final residual = 1.94534e-08, No Iterations 1
smoothSolver:  Solving for k, Initial residual = 0.000165926, Final residual = 1.62531e-07, No Iterations 1
ExecutionTime = 53.73 s  ClockTime = 53 s

Courant Number mean: 0.0200923 max: 0.499974
deltaT = 6.6684e-05
Time = 0.0998474

PIMPLE: iteration 1
smoothSolver:  Solving for Ux, Initial residual = 8.62245e-09, Final residual = 8.62245e-09, No Iterations 0
smoothSolver:  Solving for Uy, Initial residual = 3.05754e-08, Final residual = 3.05754e-08, No Iterations 0
smoothSolver:  Solving for Uz, Initial residual = 2.30248e-08, Final residual = 2.30248e-08, No Iterations 0
GAMG:  Solving for p, Initial residual = 0.999979, Final residual = 0.0447827, No Iterations 1
GAMG:  Solving for p, Initial residual = 0.053819, Final residual = 0.002013, No Iterations 2
time step continuity errors : sum local = 2.16091e-07, global = -7.91311e-09, cumulative = 3.31032e-06
GAMG:  Solving for p, Initial residual = 0.999777, Final residual = 0.0447737, No Iterations 1
GAMG:  Solving for p, Initial residual = 0.0538135, Final residual = 7.85547e-07, No Iterations 11
time step continuity errors : sum local = 8.43271e-11, global = -4.57263e-12, cumulative = 3.31031e-06
PIMPLE: iteration 2
smoothSolver:  Solving for Ux, Initial residual = 0.00157856, Final residual = 8.92976e-09, No Iterations 2
smoothSolver:  Solving for Uy, Initial residual = 0.0100853, Final residual = 4.88072e-08, No Iterations 2
smoothSolver:  Solving for Uz, Initial residual = 0.00692512, Final residual = 3.70715e-08, No Iterations 2
GAMG:  Solving for p, Initial residual = 0.726857, Final residual = 0.0328898, No Iterations 1
GAMG:  Solving for p, Initial residual = 0.276329, Final residual = 0.010524, No Iterations 2
time step continuity errors : sum local = 2.20796e-07, global = 8.28737e-09, cumulative = 3.3186e-06
GAMG:  Solving for p, Initial residual = 0.117378, Final residual = 0.0088533, No Iterations 1
GAMG:  Solving for p, Initial residual = 0.0240936, Final residual = 7.417e-07, No Iterations 11
time step continuity errors : sum local = 1.006e-11, global = 5.48487e-13, cumulative = 3.3186e-06
smoothSolver:  Solving for omega, Initial residual = 1.89995e-05, Final residual = 1.94457e-08, No Iterations 1
smoothSolver:  Solving for k, Initial residual = 0.000165845, Final residual = 1.62483e-07, No Iterations 1
ExecutionTime = 53.75 s  ClockTime = 53 s

Courant Number mean: 0.0200933 max: 0.499974
deltaT = 6.66874e-05
Time = 0.0999141

PIMPLE: iteration 1
smoothSolver:  Solving for Ux, Initial residual = 8.61921e-09, Final residual = 8.61921e-09, No Iterations 0
smoothSolver:  Solving for Uy, Initial residual = 3.05623e-08, Final residual = 3.05623e-08, No Iterations 0
smoothSolver:  Solving for Uz, Initial residual = 2.30172e-08, Final residual = 2.30172e-08, No Iterations 0
GAMG:  Solving for p, Initial residual = 0.999979, Final residual = 0.0447829, No Iterations 1
GAMG:  Solving for p, Initial residual = 0.0538198, Final residual = 0.00201298, No Iterations 2
time step continuity errors : sum local = 2.16111e-07, global = -7.91481e-09, cumulative = 3.31068e-06
GAMG:  Solving for p, Initial residual = 0.999777, Final residual = 0.0447739, No Iterations 1
GAMG:  Solving for p, Initial residual = 0.0538143, Final residual = 7.85479e-07, No Iterations 11
time step continuity errors : sum local = 8.43283e-11, global = -4.57279e-12, cumulative = 3.31068e-06
PIMPLE: iteration 2
smoothSolver:  Solving for Ux, Initial residual = 0.00157839, Final residual = 8.92841e-09, No Iterations 2
smoothSolver:  Solving for Uy, Initial residual = 0.0100844, Final residual = 4.87961e-08, No Iterations 2
smoothSolver:  Solving for Uz, Initial residual = 0.00692508, Final residual = 3.70661e-08, No Iterations 2
GAMG:  Solving for p, Initial residual = 0.72685, Final residual = 0.0328896, No Iterations 1
GAMG:  Solving for p, Initial residual = 0.276326, Final residual = 0.0105236, No Iterations 2
time step continuity errors : sum local = 2.20815e-07, global = 8.28934e-09, cumulative = 3.31897e-06
GAMG:  Solving for p, Initial residual = 0.117379, Final residual = 0.00885305, No Iterations 1
GAMG:  Solving for p, Initial residual = 0.0240936, Final residual = 7.4167e-07, No Iterations 11
time step continuity errors : sum local = 1.00607e-11, global = 5.48525e-13, cumulative = 3.31897e-06
smoothSolver:  Solving for omega, Initial residual = 1.89878e-05, Final residual = 1.94379e-08, No Iterations 1
smoothSolver:  Solving for k, Initial residual = 0.000165762, Final residual = 1.62433e-07, No Iterations 1
ExecutionTime = 53.78 s  ClockTime = 53 s

Courant Number mean: 0.0200943 max: 0.499974
deltaT = 6.66909e-05
Time = 0.0999808

PIMPLE: iteration 1
smoothSolver:  Solving for Ux, Initial residual = 8.61655e-09, Final residual = 8.61655e-09, No Iterations 0
smoothSolver:  Solving for Uy, Initial residual = 3.05496e-08, Final residual = 3.05496e-08, No Iterations 0
smoothSolver:  Solving for Uz, Initial residual = 2.30083e-08, Final residual = 2.30083e-08, No Iterations 0
GAMG:  Solving for p, Initial residual = 0.999979, Final residual = 0.044783, No Iterations 1
GAMG:  Solving for p, Initial residual = 0.0538206, Final residual = 0.00201295, No Iterations 2
time step continuity errors : sum local = 2.16129e-07, global = -7.91645e-09, cumulative = 3.31105e-06
GAMG:  Solving for p, Initial residual = 0.999776, Final residual = 0.044774, No Iterations 1
GAMG:  Solving for p, Initial residual = 0.0538151, Final residual = 7.85407e-07, No Iterations 11
time step continuity errors : sum local = 8.43291e-11, global = -4.57292e-12, cumulative = 3.31105e-06
PIMPLE: iteration 2
smoothSolver:  Solving for Ux, Initial residual = 0.00157823, Final residual = 8.92707e-09, No Iterations 2
smoothSolver:  Solving for Uy, Initial residual = 0.0100835, Final residual = 4.87851e-08, No Iterations 2
smoothSolver:  Solving for Uz, Initial residual = 0.00692505, Final residual = 3.70608e-08, No Iterations 2
GAMG:  Solving for p, Initial residual = 0.726842, Final residual = 0.0328893, No Iterations 1
GAMG:  Solving for p, Initial residual = 0.276322, Final residual = 0.0105232, No Iterations 2
time step continuity errors : sum local = 2.20834e-07, global = 8.29122e-09, cumulative = 3.31934e-06
GAMG:  Solving for p, Initial residual = 0.11738, Final residual = 0.00885281, No Iterations 1
GAMG:  Solving for p, Initial residual = 0.0240934, Final residual = 7.4164e-07, No Iterations 11
time step continuity errors : sum local = 1.00613e-11, global = 5.48562e-13, cumulative = 3.31934e-06
smoothSolver:  Solving for omega, Initial residual = 1.89759e-05, Final residual = 1.94299e-08, No Iterations 1
smoothSolver:  Solving for k, Initial residual = 0.000165679, Final residual = 1.62381e-07, No Iterations 1
ExecutionTime = 53.81 s  ClockTime = 53 s

End

Finalising parallel run
[SOLVER] completed (exit code: 0)
[SOLVER] Reconstructing parallel results...
[RECONSTRUCT] Running: reconstructPar
/*---------------------------------------------------------------------------*\
| =========                 |                                                 |
| \\      /  F ield         | OpenFOAM: The Open Source CFD Toolbox           |
|  \\    /   O peration     | Version:  2506                                  |
|   \\  /    A nd           | Website:  www.openfoam.com                      |
|    \\/     M anipulation  |                                                 |
\*---------------------------------------------------------------------------*/
Build  : _615aae61-20250627 OPENFOAM=2506 version=2506
Arch   : "LSB;label=32;scalar=64"
Exec   : reconstructPar
Date   : Jan 24 2026
Time   : 18:45:02
Host   : Vortex-Eclipse
PID    : 241008
I/O    : uncollated
Case   : /home/reen/openfoam/Tutorials/Rotating_Setup_Case/OpenFOAM_GUI/WindTunnelGUI/runs/Run_1_20260124_184402/windTunnelCase
nProcs : 1
trapFpe: Floating point exception trapping enabled (FOAM_SIGFPE).
fileModificationChecking : Monitoring run-time modified files using timeStampMaster (fileModificationSkew 5, maxFileModificationPolls 20)
allowSystemOperations : Allowing user-supplied system call operations

// * * * * * * * * * * * * * * * * * * * * * * * * * * * * * * * * * * * * * //
Create time



Reconstructing fields
region=region0

Time = 0.0048193

Reconstructing FV fields

    Reconstructing volScalarFields

        k
        nut
        omega
        p

    Reconstructing volVectorFields

        U

    Reconstructing surfaceScalarFields

        phi

Reconstructing point fields

No point fields

No lagrangian fields

No FA fields

Time = 0.0100421

Reconstructing FV fields

    Reconstructing volScalarFields

        k
        nut
        omega
        p

    Reconstructing volVectorFields

        U

    Reconstructing surfaceScalarFields

        phi

Reconstructing point fields

No point fields

No lagrangian fields

No FA fields

Time = 0.0153625

Reconstructing FV fields

    Reconstructing volScalarFields

        k
        nut
        omega
        p

    Reconstructing volVectorFields

        U

    Reconstructing surfaceScalarFields

        phi

Reconstructing point fields

No point fields

No lagrangian fields

No FA fields

Time = 0.0208065

Reconstructing FV fields

    Reconstructing volScalarFields

        k
        nut
        omega
        p

    Reconstructing volVectorFields

        U

    Reconstructing surfaceScalarFields

        phi

Reconstructing point fields

No point fields

No lagrangian fields

No FA fields

Time = 0.0263904

Reconstructing FV fields

    Reconstructing volScalarFields

        k
        nut
        omega
        p

    Reconstructing volVectorFields

        U

    Reconstructing surfaceScalarFields

        phi

Reconstructing point fields

No point fields

No lagrangian fields

No FA fields

Time = 0.0321515

Reconstructing FV fields

    Reconstructing volScalarFields

        k
        nut
        omega
        p

    Reconstructing volVectorFields

        U

    Reconstructing surfaceScalarFields

        phi

Reconstructing point fields

No point fields

No lagrangian fields

No FA fields

Time = 0.0380918

Reconstructing FV fields

    Reconstructing volScalarFields

        k
        nut
        omega
        p

    Reconstructing volVectorFields

        U

    Reconstructing surfaceScalarFields

        phi

Reconstructing point fields

No point fields

No lagrangian fields

No FA fields

Time = 0.0441161

Reconstructing FV fields

    Reconstructing volScalarFields

        k
        nut
        omega
        p

    Reconstructing volVectorFields

        U

    Reconstructing surfaceScalarFields

        phi

Reconstructing point fields

No point fields

No lagrangian fields

No FA fields

Time = 0.0502116

Reconstructing FV fields

    Reconstructing volScalarFields

        k
        nut
        omega
        p

    Reconstructing volVectorFields

        U

    Reconstructing surfaceScalarFields

        phi

Reconstructing point fields

No point fields

No lagrangian fields

No FA fields

Time = 0.0563789

Reconstructing FV fields

    Reconstructing volScalarFields

        k
        nut
        omega
        p

    Reconstructing volVectorFields

        U

    Reconstructing surfaceScalarFields

        phi

Reconstructing point fields

No point fields

No lagrangian fields

No FA fields

Time = 0.0626215

Reconstructing FV fields

    Reconstructing volScalarFields

        k
        nut
        omega
        p

    Reconstructing volVectorFields

        U

    Reconstructing surfaceScalarFields

        phi

Reconstructing point fields

No point fields

No lagrangian fields

No FA fields

Time = 0.0689354

Reconstructing FV fields

    Reconstructing volScalarFields

        k
        nut
        omega
        p

    Reconstructing volVectorFields

        U

    Reconstructing surfaceScalarFields

        phi

Reconstructing point fields

No point fields

No lagrangian fields

No FA fields

Time = 0.0753141

Reconstructing FV fields

    Reconstructing volScalarFields

        k
        nut
        omega
        p

    Reconstructing volVectorFields

        U

    Reconstructing surfaceScalarFields

        phi

Reconstructing point fields

No point fields

No lagrangian fields

No FA fields

Time = 0.0817674

Reconstructing FV fields

    Reconstructing volScalarFields

        k
        nut
        omega
        p

    Reconstructing volVectorFields

        U

    Reconstructing surfaceScalarFields

        phi

Reconstructing point fields

No point fields

No lagrangian fields

No FA fields

Time = 0.0883083

Reconstructing FV fields

    Reconstructing volScalarFields

        k
        nut
        omega
        p

    Reconstructing volVectorFields

        U

    Reconstructing surfaceScalarFields

        phi

Reconstructing point fields

No point fields

No lagrangian fields

No FA fields

Time = 0.0949228

Reconstructing FV fields

    Reconstructing volScalarFields

        k
        nut
        omega
        p

    Reconstructing volVectorFields

        U

    Reconstructing surfaceScalarFields

        phi

Reconstructing point fields

No point fields

No lagrangian fields

No FA fields


End

[RECONSTRUCT] completed (exit code: 0)
