[WORKFLOW] Applying settings...
[SETTINGS] Updated controlDict: solver=pimpleFoam, endTime=0.1
[SETTINGS] Updated transportProperties: nu=1.5e-05
[SETTINGS] Updated turbulenceProperties: model=kOmegaSST
[WORKFLOW] Starting solver...
[SOLVER] Decomposing for parallel run...
[DECOMPOSE] Running: decomposePar -force
/*---------------------------------------------------------------------------*\
| =========                 |                                                 |
| \\      /  F ield         | OpenFOAM: The Open Source CFD Toolbox           |
|  \\    /   O peration     | Version:  2506                                  |
|   \\  /    A nd           | Website:  www.openfoam.com                      |
|    \\/     M anipulation  |                                                 |
\*---------------------------------------------------------------------------*/
Build  : _615aae61-20250627 OPENFOAM=2506 version=2506
Arch   : "LSB;label=32;scalar=64"
Exec   : decomposePar -force
Date   : Jan 24 2026
Time   : 00:45:31
Host   : Vortex-Eclipse
PID    : 232736
I/O    : uncollated
Case   : /home/reen/openfoam/Tutorials/Rotating_Setup_Case/OpenFOAM_GUI/WindTunnelGUI/runs/Run_1_20260124_004526/windTunnelCase
nProcs : 1
trapFpe: Floating point exception trapping enabled (FOAM_SIGFPE).
fileModificationChecking : Monitoring run-time modified files using timeStampMaster (fileModificationSkew 5, maxFileModificationPolls 20)
allowSystemOperations : Allowing user-supplied system call operations

// * * * * * * * * * * * * * * * * * * * * * * * * * * * * * * * * * * * * * //
Create time



Decomposing mesh

Create mesh

Calculating distribution of cells
Decomposition method scotch [12] (region region0)

Finished decomposition in 0.1 s

Calculating original mesh data

Distributing cells to processors

Distributing faces to processors

Distributing points to processors

Constructing processor meshes

Processor 0
    Number of cells = 3945
    Number of points = 890
    Number of faces shared with processor 1 = 47
    Number of faces shared with processor 3 = 86
    Number of faces shared with processor 4 = 37
    Number of faces shared with processor 5 = 166
    Number of faces shared with processor 9 = 34
    Number of faces shared with processor 10 = 127
    Number of processor patches = 6
    Number of processor faces = 497
    Number of boundary faces = 293

Processor 1
    Number of cells = 3915
    Number of points = 1003
    Number of faces shared with processor 0 = 47
    Number of faces shared with processor 2 = 136
    Number of faces shared with processor 3 = 119
    Number of faces shared with processor 4 = 52
    Number of faces shared with processor 5 = 5
    Number of faces shared with processor 7 = 12
    Number of faces shared with processor 9 = 2
    Number of faces shared with processor 10 = 125
    Number of processor patches = 8
    Number of processor faces = 498
    Number of boundary faces = 708

Processor 2
    Number of cells = 3917
    Number of points = 1018
    Number of faces shared with processor 1 = 136
    Number of faces shared with processor 7 = 59
    Number of processor patches = 2
    Number of processor faces = 195
    Number of boundary faces = 1085

Processor 3
    Number of cells = 3991
    Number of points = 846
    Number of faces shared with processor 0 = 86
    Number of faces shared with processor 1 = 119
    Number of faces shared with processor 4 = 122
    Number of faces shared with processor 5 = 122
    Number of processor patches = 4
    Number of processor faces = 449
    Number of boundary faces = 149

Processor 4
    Number of cells = 3919
    Number of points = 851
    Number of faces shared with processor 0 = 37
    Number of faces shared with processor 1 = 52
    Number of faces shared with processor 3 = 122
    Number of faces shared with processor 5 = 225
    Number of processor patches = 4
    Number of processor faces = 436
    Number of boundary faces = 234

Processor 5
    Number of cells = 3952
    Number of points = 909
    Number of faces shared with processor 0 = 166
    Number of faces shared with processor 1 = 5
    Number of faces shared with processor 3 = 122
    Number of faces shared with processor 4 = 225
    Number of faces shared with processor 9 = 82
    Number of processor patches = 5
    Number of processor faces = 600
    Number of boundary faces = 250

Processor 6
    Number of cells = 3944
    Number of points = 839
    Number of faces shared with processor 7 = 158
    Number of faces shared with processor 8 = 107
    Number of faces shared with processor 9 = 72
    Number of faces shared with processor 10 = 23
    Number of faces shared with processor 11 = 59
    Number of processor patches = 5
    Number of processor faces = 419
    Number of boundary faces = 187

Processor 7
    Number of cells = 3969
    Number of points = 935
    Number of faces shared with processor 1 = 12
    Number of faces shared with processor 2 = 59
    Number of faces shared with processor 6 = 158
    Number of faces shared with processor 8 = 229
    Number of faces shared with processor 9 = 86
    Number of faces shared with processor 10 = 21
    Number of faces shared with processor 11 = 56
    Number of processor patches = 7
    Number of processor faces = 621
    Number of boundary faces = 311

Processor 8
    Number of cells = 3990
    Number of points = 870
    Number of faces shared with processor 6 = 107
    Number of faces shared with processor 7 = 229
    Number of faces shared with processor 10 = 52
    Number of faces shared with processor 11 = 79
    Number of processor patches = 4
    Number of processor faces = 467
    Number of boundary faces = 205

Processor 9
    Number of cells = 3923
    Number of points = 999
    Number of faces shared with processor 0 = 34
    Number of faces shared with processor 1 = 2
    Number of faces shared with processor 5 = 82
    Number of faces shared with processor 6 = 72
    Number of faces shared with processor 7 = 86
    Number of faces shared with processor 10 = 50
    Number of faces shared with processor 11 = 90
    Number of processor patches = 7
    Number of processor faces = 416
    Number of boundary faces = 772

Processor 10
    Number of cells = 3987
    Number of points = 943
    Number of faces shared with processor 0 = 127
    Number of faces shared with processor 1 = 125
    Number of faces shared with processor 6 = 23
    Number of faces shared with processor 7 = 21
    Number of faces shared with processor 8 = 52
    Number of faces shared with processor 9 = 50
    Number of faces shared with processor 11 = 164
    Number of processor patches = 7
    Number of processor faces = 562
    Number of boundary faces = 412

Processor 11
    Number of cells = 3973
    Number of points = 878
    Number of faces shared with processor 6 = 59
    Number of faces shared with processor 7 = 56
    Number of faces shared with processor 8 = 79
    Number of faces shared with processor 9 = 90
    Number of faces shared with processor 10 = 164
    Number of processor patches = 5
    Number of processor faces = 448
    Number of boundary faces = 292

Number of processor faces = 2804
Max number of cells = 3991 (0.984713% above average 3952.08)
Max number of processor patches = 8 (50% above average 5.33333)
Max number of faces between processors = 621 (32.8816% above average 467.333)

Time = 0

Processor 0: field transfer
Processor 1: field transfer
Processor 2: field transfer
Processor 3: field transfer
Processor 4: field transfer
Processor 5: field transfer
Processor 6: field transfer
Processor 7: field transfer
Processor 8: field transfer
Processor 9: field transfer
Processor 10: field transfer
Processor 11: field transfer

End

[DECOMPOSE] completed (exit code: 0)
[SOLVER] Running pimpleFoam...
[SOLVER] Running: mpirun -np 12 pimpleFoam -parallel
/*---------------------------------------------------------------------------*\
| =========                 |                                                 |
| \\      /  F ield         | OpenFOAM: The Open Source CFD Toolbox           |
|  \\    /   O peration     | Version:  2506                                  |
|   \\  /    A nd           | Website:  www.openfoam.com                      |
|    \\/     M anipulation  |                                                 |
\*---------------------------------------------------------------------------*/
Build  : _615aae61-20250627 OPENFOAM=2506 version=2506
Arch   : "LSB;label=32;scalar=64"
Exec   : pimpleFoam -parallel
Date   : Jan 24 2026
Time   : 00:45:32
Host   : Vortex-Eclipse
PID    : 234217
I/O    : uncollated
Case   : /home/reen/openfoam/Tutorials/Rotating_Setup_Case/OpenFOAM_GUI/WindTunnelGUI/runs/Run_1_20260124_004526/windTunnelCase
nProcs : 12
Hosts  :
(
    (Vortex-Eclipse 12)
)
Pstream initialized with:
    node communication : off [type=host] (12 ranks, 1 nodes)
    topology controls  : none
    consensus exchange : 0 (tuning: 0)
    exchange algorithm : 0
    commsType          : nonBlocking
    polling iterations : 0
trapFpe: Floating point exception trapping enabled (FOAM_SIGFPE).
fileModificationChecking : Monitoring run-time modified files using timeStampMaster (fileModificationSkew 5, maxFileModificationPolls 20)
allowSystemOperations : Allowing user-supplied system call operations

// * * * * * * * * * * * * * * * * * * * * * * * * * * * * * * * * * * * * * //
Create time

Create mesh for time = 0


PIMPLE: no residual control data found. Calculations will employ 2 corrector loops

Reading field p

Reading field U

Reading/calculating face flux field phi

Selecting incompressible transport model Newtonian
Selecting turbulence model type RAS
Selecting RAS turbulence model kOmegaSST
Selecting patchDistMethod meshWave
RAS
{
    RASModel        kOmegaSST;
    turbulence      on;
    printCoeffs     on;
    alphaK1         0.85;
    alphaK2         1;
    alphaOmega1     0.5;
    alphaOmega2     0.856;
    gamma1          0.555556;
    gamma2          0.44;
    beta1           0.075;
    beta2           0.0828;
    betaStar        0.09;
    a1              0.31;
    b1              1;
    c1              10;
    F3              false;
    decayControl    false;
    kInf            0;
    omegaInf        0;
}

No MRF models present

No finite volume options present
Courant Number mean: 1.30588e-05 max: 0.00273856
Courant Number mean: 1.30588e-05 max: 0.00273856

Starting time loop

Courant Number mean: 1.30588e-05 max: 0.00273856
deltaT = 1.2e-05
Time = 1.2e-05

PIMPLE: iteration 1
smoothSolver:  Solving for Ux, Initial residual = 1, Final residual = 1.59557e-16, No Iterations 1
smoothSolver:  Solving for Uy, Initial residual = 0, Final residual = 0, No Iterations 0
smoothSolver:  Solving for Uz, Initial residual = 0, Final residual = 0, No Iterations 0
GAMG:  Solving for p, Initial residual = 1, Final residual = 0.0552934, No Iterations 6
GAMG:  Solving for p, Initial residual = 0.152117, Final residual = 0.00639662, No Iterations 1
time step continuity errors : sum local = 4.41033e-05, global = -1.33717e-07, cumulative = -1.33717e-07
GAMG:  Solving for p, Initial residual = 0.975734, Final residual = 0.0539305, No Iterations 6
GAMG:  Solving for p, Initial residual = 0.152102, Final residual = 8.64717e-07, No Iterations 10
time step continuity errors : sum local = 5.96205e-09, global = 3.3446e-10, cumulative = -1.33382e-07
PIMPLE: iteration 2
smoothSolver:  Solving for Ux, Initial residual = 0.999982, Final residual = 6.91167e-08, No Iterations 2
smoothSolver:  Solving for Uy, Initial residual = 0.999799, Final residual = 6.75719e-08, No Iterations 2
smoothSolver:  Solving for Uz, Initial residual = 0.999799, Final residual = 7.58597e-08, No Iterations 2
GAMG:  Solving for p, Initial residual = 0.0154632, Final residual = 0.000769129, No Iterations 1
GAMG:  Solving for p, Initial residual = 0.00229566, Final residual = 0.000207812, No Iterations 1
time step continuity errors : sum local = 1.61336e-06, global = -1.41313e-07, cumulative = -2.74696e-07
GAMG:  Solving for p, Initial residual = 0.000804845, Final residual = 4.76669e-05, No Iterations 2
GAMG:  Solving for p, Initial residual = 0.000611176, Final residual = 8.84703e-07, No Iterations 5
time step continuity errors : sum local = 6.9301e-09, global = -4.64573e-10, cumulative = -2.7516e-07
smoothSolver:  Solving for omega, Initial residual = 0.00104027, Final residual = 2.26841e-07, No Iterations 1
smoothSolver:  Solving for k, Initial residual = 1, Final residual = 7.60416e-08, No Iterations 2
ExecutionTime = 0.05 s  ClockTime = 0 s

Courant Number mean: 0.00363186 max: 0.176689
deltaT = 1.44e-05
Time = 2.64e-05

PIMPLE: iteration 1
smoothSolver:  Solving for Ux, Initial residual = 0.000387735, Final residual = 5.88768e-12, No Iterations 1
smoothSolver:  Solving for Uy, Initial residual = 5.97364e-05, Final residual = 8.80495e-13, No Iterations 1
smoothSolver:  Solving for Uz, Initial residual = 5.93046e-05, Final residual = 8.99353e-13, No Iterations 1
GAMG:  Solving for p, Initial residual = 0.99879, Final residual = 0.0496002, No Iterations 1
GAMG:  Solving for p, Initial residual = 0.0637396, Final residual = 0.00382585, No Iterations 2
time step continuity errors : sum local = 4.98415e-06, global = 3.634e-07, cumulative = 8.82397e-08
GAMG:  Solving for p, Initial residual = 0.998688, Final residual = 0.0495954, No Iterations 1
GAMG:  Solving for p, Initial residual = 0.0637319, Final residual = 5.07987e-07, No Iterations 12
time step continuity errors : sum local = 6.618e-10, global = 4.05336e-11, cumulative = 8.82802e-08
PIMPLE: iteration 2
smoothSolver:  Solving for Ux, Initial residual = 0.861379, Final residual = 3.5441e-08, No Iterations 2
smoothSolver:  Solving for Uy, Initial residual = 0.350291, Final residual = 1.28667e-08, No Iterations 2
smoothSolver:  Solving for Uz, Initial residual = 0.347601, Final residual = 1.4794e-08, No Iterations 2
GAMG:  Solving for p, Initial residual = 0.0411741, Final residual = 0.00322532, No Iterations 3
GAMG:  Solving for p, Initial residual = 0.600077, Final residual = 0.0254011, No Iterations 1
time step continuity errors : sum local = 5.68883e-05, global = 2.66211e-06, cumulative = 2.7504e-06
GAMG:  Solving for p, Initial residual = 0.155423, Final residual = 0.014385, No Iterations 1
GAMG:  Solving for p, Initial residual = 0.0774564, Final residual = 5.18443e-07, No Iterations 12
time step continuity errors : sum local = 3.59126e-10, global = 2.12806e-11, cumulative = 2.75042e-06
smoothSolver:  Solving for omega, Initial residual = 0.0011285, Final residual = 2.83744e-07, No Iterations 1
smoothSolver:  Solving for k, Initial residual = 0.366887, Final residual = 2.22433e-08, No Iterations 2
ExecutionTime = 0.09 s  ClockTime = 0 s

Courant Number mean: 0.00438608 max: 0.207282
deltaT = 1.728e-05
Time = 4.368e-05

PIMPLE: iteration 1
smoothSolver:  Solving for Ux, Initial residual = 9.50636e-06, Final residual = 1.74683e-13, No Iterations 1
smoothSolver:  Solving for Uy, Initial residual = 7.6396e-06, Final residual = 1.27804e-13, No Iterations 1
smoothSolver:  Solving for Uz, Initial residual = 7.12327e-06, Final residual = 1.14027e-13, No Iterations 1
GAMG:  Solving for p, Initial residual = 0.999863, Final residual = 0.0471372, No Iterations 1
GAMG:  Solving for p, Initial residual = 0.0565603, Final residual = 0.00343535, No Iterations 2
time step continuity errors : sum local = 4.28284e-06, global = 3.09659e-07, cumulative = 3.06007e-06
GAMG:  Solving for p, Initial residual = 0.999639, Final residual = 0.0471268, No Iterations 1
GAMG:  Solving for p, Initial residual = 0.0565535, Final residual = 4.53302e-07, No Iterations 12
time step continuity errors : sum local = 5.65143e-10, global = 3.46297e-11, cumulative = 3.06011e-06
PIMPLE: iteration 2
smoothSolver:  Solving for Ux, Initial residual = 0.301741, Final residual = 1.84521e-08, No Iterations 2
smoothSolver:  Solving for Uy, Initial residual = 0.16595, Final residual = 8.95168e-09, No Iterations 2
smoothSolver:  Solving for Uz, Initial residual = 0.162165, Final residual = 8.11934e-09, No Iterations 2
GAMG:  Solving for p, Initial residual = 0.482753, Final residual = 0.0217899, No Iterations 1
GAMG:  Solving for p, Initial residual = 0.125674, Final residual = 0.006834, No Iterations 2
time step continuity errors : sum local = 5.61439e-06, global = -4.1251e-07, cumulative = 2.6476e-06
GAMG:  Solving for p, Initial residual = 0.175825, Final residual = 0.00937901, No Iterations 1
GAMG:  Solving for p, Initial residual = 0.0259516, Final residual = 5.73349e-07, No Iterations 11
time step continuity errors : sum local = 2.07847e-10, global = -1.20915e-11, cumulative = 2.64759e-06
smoothSolver:  Solving for omega, Initial residual = 0.00128985, Final residual = 3.98281e-07, No Iterations 1
smoothSolver:  Solving for k, Initial residual = 0.265375, Final residual = 2.51893e-08, No Iterations 2
ExecutionTime = 0.12 s  ClockTime = 0 s

Courant Number mean: 0.00526042 max: 0.241463
deltaT = 2.0736e-05
Time = 6.4416e-05

PIMPLE: iteration 1
smoothSolver:  Solving for Ux, Initial residual = 3.87188e-06, Final residual = 8.74809e-14, No Iterations 1
smoothSolver:  Solving for Uy, Initial residual = 2.60879e-06, Final residual = 5.73914e-14, No Iterations 1
smoothSolver:  Solving for Uz, Initial residual = 2.50382e-06, Final residual = 5.27659e-14, No Iterations 1
GAMG:  Solving for p, Initial residual = 0.999941, Final residual = 0.045679, No Iterations 1
GAMG:  Solving for p, Initial residual = 0.0541447, Final residual = 0.00321491, No Iterations 2
time step continuity errors : sum local = 4.3029e-06, global = 3.1295e-07, cumulative = 2.96054e-06
GAMG:  Solving for p, Initial residual = 0.999713, Final residual = 0.0456687, No Iterations 1
GAMG:  Solving for p, Initial residual = 0.0541383, Final residual = 4.2431e-07, No Iterations 12
time step continuity errors : sum local = 5.67918e-10, global = 3.49068e-11, cumulative = 2.96057e-06
PIMPLE: iteration 2
smoothSolver:  Solving for Ux, Initial residual = 0.225503, Final residual = 2.12048e-08, No Iterations 2
smoothSolver:  Solving for Uy, Initial residual = 0.114173, Final residual = 9.84363e-09, No Iterations 2
smoothSolver:  Solving for Uz, Initial residual = 0.111735, Final residual = 8.94026e-09, No Iterations 2
GAMG:  Solving for p, Initial residual = 0.470188, Final residual = 0.0212405, No Iterations 1
GAMG:  Solving for p, Initial residual = 0.118919, Final residual = 0.0069263, No Iterations 2
time step continuity errors : sum local = 4.76939e-06, global = -3.49376e-07, cumulative = 2.6112e-06
GAMG:  Solving for p, Initial residual = 0.183013, Final residual = 0.00969419, No Iterations 1
GAMG:  Solving for p, Initial residual = 0.0266222, Final residual = 5.86568e-07, No Iterations 11
time step continuity errors : sum local = 1.74938e-10, global = -1.0127e-11, cumulative = 2.61119e-06
smoothSolver:  Solving for omega, Initial residual = 0.00148117, Final residual = 5.62113e-07, No Iterations 1
smoothSolver:  Solving for k, Initial residual = 0.192805, Final residual = 2.88159e-08, No Iterations 2
ExecutionTime = 0.15 s  ClockTime = 0 s

Courant Number mean: 0.0063096 max: 0.281053
deltaT = 2.4425e-05
Time = 8.8841e-05

PIMPLE: iteration 1
smoothSolver:  Solving for Ux, Initial residual = 2.55509e-06, Final residual = 7.1055e-14, No Iterations 1
smoothSolver:  Solving for Uy, Initial residual = 1.76698e-06, Final residual = 4.79269e-14, No Iterations 1
smoothSolver:  Solving for Uz, Initial residual = 1.71988e-06, Final residual = 4.46809e-14, No Iterations 1
GAMG:  Solving for p, Initial residual = 0.999956, Final residual = 0.0445553, No Iterations 1
GAMG:  Solving for p, Initial residual = 0.0524769, Final residual = 0.00304112, No Iterations 2
time step continuity errors : sum local = 4.39382e-06, global = 3.20689e-07, cumulative = 2.93188e-06
GAMG:  Solving for p, Initial residual = 0.999729, Final residual = 0.0445453, No Iterations 1
GAMG:  Solving for p, Initial residual = 0.0524707, Final residual = 9.77652e-07, No Iterations 11
time step continuity errors : sum local = 1.41254e-09, global = 7.55334e-11, cumulative = 2.93195e-06
PIMPLE: iteration 2
smoothSolver:  Solving for Ux, Initial residual = 0.188205, Final residual = 2.58086e-08, No Iterations 2
smoothSolver:  Solving for Uy, Initial residual = 0.0984979, Final residual = 1.23121e-08, No Iterations 2
smoothSolver:  Solving for Uz, Initial residual = 0.0960705, Final residual = 1.1303e-08, No Iterations 2
GAMG:  Solving for p, Initial residual = 0.492754, Final residual = 0.0218461, No Iterations 1
GAMG:  Solving for p, Initial residual = 0.125242, Final residual = 0.00713651, No Iterations 2
time step continuity errors : sum local = 4.71526e-06, global = -3.46043e-07, cumulative = 2.58591e-06
GAMG:  Solving for p, Initial residual = 0.193658, Final residual = 0.0102658, No Iterations 1
GAMG:  Solving for p, Initial residual = 0.0283271, Final residual = 6.23034e-07, No Iterations 11
time step continuity errors : sum local = 1.71292e-10, global = -9.90643e-12, cumulative = 2.5859e-06
smoothSolver:  Solving for omega, Initial residual = 0.00166974, Final residual = 7.64303e-07, No Iterations 1
smoothSolver:  Solving for k, Initial residual = 0.149433, Final residual = 3.43011e-08, No Iterations 2
ExecutionTime = 0.19 s  ClockTime = 0 s

Courant Number mean: 0.00742913 max: 0.321347
deltaT = 2.82254e-05
Time = 0.000117066

PIMPLE: iteration 1
smoothSolver:  Solving for Ux, Initial residual = 1.899e-06, Final residual = 6.3211e-14, No Iterations 1
smoothSolver:  Solving for Uy, Initial residual = 1.43819e-06, Final residual = 4.69793e-14, No Iterations 1
smoothSolver:  Solving for Uz, Initial residual = 1.39906e-06, Final residual = 4.35561e-14, No Iterations 1
GAMG:  Solving for p, Initial residual = 0.999964, Final residual = 0.0436859, No Iterations 1
GAMG:  Solving for p, Initial residual = 0.051236, Final residual = 0.00289729, No Iterations 2
time step continuity errors : sum local = 4.49211e-06, global = 3.28644e-07, cumulative = 2.91454e-06
GAMG:  Solving for p, Initial residual = 0.999738, Final residual = 0.0436762, No Iterations 1
GAMG:  Solving for p, Initial residual = 0.05123, Final residual = 9.31287e-07, No Iterations 11
time step continuity errors : sum local = 1.44394e-09, global = 7.71815e-11, cumulative = 2.91462e-06
PIMPLE: iteration 2
smoothSolver:  Solving for Ux, Initial residual = 0.162346, Final residual = 3.09248e-08, No Iterations 2
smoothSolver:  Solving for Uy, Initial residual = 0.0886491, Final residual = 1.53708e-08, No Iterations 2
smoothSolver:  Solving for Uz, Initial residual = 0.0862296, Final residual = 1.43015e-08, No Iterations 2
GAMG:  Solving for p, Initial residual = 0.514301, Final residual = 0.0223998, No Iterations 1
GAMG:  Solving for p, Initial residual = 0.131347, Final residual = 0.00731175, No Iterations 2
time step continuity errors : sum local = 4.74565e-06, global = -3.48553e-07, cumulative = 2.56607e-06
GAMG:  Solving for p, Initial residual = 0.203191, Final residual = 0.010775, No Iterations 1
GAMG:  Solving for p, Initial residual = 0.0298887, Final residual = 6.55166e-07, No Iterations 11
time step continuity errors : sum local = 1.70933e-10, global = -9.88698e-12, cumulative = 2.56606e-06
smoothSolver:  Solving for omega, Initial residual = 0.00184392, Final residual = 9.98207e-07, No Iterations 1
smoothSolver:  Solving for k, Initial residual = 0.120948, Final residual = 4.08921e-08, No Iterations 2
ExecutionTime = 0.22 s  ClockTime = 0 s

Courant Number mean: 0.00858197 max: 0.364703
deltaT = 3.2095e-05
Time = 0.000149161

PIMPLE: iteration 1
smoothSolver:  Solving for Ux, Initial residual = 1.54438e-06, Final residual = 6.01032e-14, No Iterations 1
smoothSolver:  Solving for Uy, Initial residual = 1.27065e-06, Final residual = 4.87078e-14, No Iterations 1
smoothSolver:  Solving for Uz, Initial residual = 1.23237e-06, Final residual = 4.52547e-14, No Iterations 1
GAMG:  Solving for p, Initial residual = 0.999969, Final residual = 0.0429922, No Iterations 1
GAMG:  Solving for p, Initial residual = 0.0502793, Final residual = 0.00277483, No Iterations 2
time step continuity errors : sum local = 4.58241e-06, global = 3.35742e-07, cumulative = 2.9018e-06
GAMG:  Solving for p, Initial residual = 0.999744, Final residual = 0.0429827, No Iterations 1
GAMG:  Solving for p, Initial residual = 0.0502734, Final residual = 8.91733e-07, No Iterations 11
time step continuity errors : sum local = 1.47265e-09, global = 7.87076e-11, cumulative = 2.90188e-06
PIMPLE: iteration 2
smoothSolver:  Solving for Ux, Initial residual = 0.143222, Final residual = 3.6452e-08, No Iterations 2
smoothSolver:  Solving for Uy, Initial residual = 0.0815611, Final residual = 1.88804e-08, No Iterations 2
smoothSolver:  Solving for Uz, Initial residual = 0.0791327, Final residual = 1.77619e-08, No Iterations 2
GAMG:  Solving for p, Initial residual = 0.533544, Final residual = 0.0228996, No Iterations 1
GAMG:  Solving for p, Initial residual = 0.137257, Final residual = 0.00746773, No Iterations 2
time step continuity errors : sum local = 4.79675e-06, global = -3.52472e-07, cumulative = 2.54941e-06
GAMG:  Solving for p, Initial residual = 0.211575, Final residual = 0.0112272, No Iterations 1
GAMG:  Solving for p, Initial residual = 0.0313064, Final residual = 6.84043e-07, No Iterations 11
time step continuity errors : sum local = 1.71375e-10, global = -9.91206e-12, cumulative = 2.5494e-06
smoothSolver:  Solving for omega, Initial residual = 0.00199909, Final residual = 1.70873e-09, No Iterations 2
smoothSolver:  Solving for k, Initial residual = 0.100769, Final residual = 4.85005e-08, No Iterations 2
ExecutionTime = 0.25 s  ClockTime = 0 s

Courant Number mean: 0.00975526 max: 0.407666
deltaT = 3.60315e-05
Time = 0.000185193

PIMPLE: iteration 1
smoothSolver:  Solving for Ux, Initial residual = 1.35976e-06, Final residual = 6.02001e-14, No Iterations 1
smoothSolver:  Solving for Uy, Initial residual = 1.18402e-06, Final residual = 5.21972e-14, No Iterations 1
smoothSolver:  Solving for Uz, Initial residual = 1.14469e-06, Final residual = 4.88326e-14, No Iterations 1
GAMG:  Solving for p, Initial residual = 0.999973, Final residual = 0.0424233, No Iterations 1
GAMG:  Solving for p, Initial residual = 0.0495254, Final residual = 0.0026691, No Iterations 2
time step continuity errors : sum local = 4.66308e-06, global = 3.41946e-07, cumulative = 2.89134e-06
GAMG:  Solving for p, Initial residual = 0.999748, Final residual = 0.0424139, No Iterations 1
GAMG:  Solving for p, Initial residual = 0.0495197, Final residual = 8.57557e-07, No Iterations 11
time step continuity errors : sum local = 1.49823e-09, global = 8.00833e-11, cumulative = 2.89142e-06
PIMPLE: iteration 2
smoothSolver:  Solving for Ux, Initial residual = 0.128499, Final residual = 4.244e-08, No Iterations 2
smoothSolver:  Solving for Uy, Initial residual = 0.0761543, Final residual = 2.28957e-08, No Iterations 2
smoothSolver:  Solving for Uz, Initial residual = 0.0737164, Final residual = 2.17608e-08, No Iterations 2
GAMG:  Solving for p, Initial residual = 0.550716, Final residual = 0.0233528, No Iterations 1
GAMG:  Solving for p, Initial residual = 0.143008, Final residual = 0.00760818, No Iterations 2
time step continuity errors : sum local = 4.85305e-06, global = -3.56634e-07, cumulative = 2.53479e-06
GAMG:  Solving for p, Initial residual = 0.219051, Final residual = 0.0116329, No Iterations 1
GAMG:  Solving for p, Initial residual = 0.0326154, Final residual = 7.10437e-07, No Iterations 11
time step continuity errors : sum local = 1.72064e-10, global = -9.95093e-12, cumulative = 2.53478e-06
smoothSolver:  Solving for omega, Initial residual = 0.00213413, Final residual = 2.56865e-09, No Iterations 2
smoothSolver:  Solving for k, Initial residual = 0.0857494, Final residual = 5.70095e-08, No Iterations 2
ExecutionTime = 0.28 s  ClockTime = 0 s

Courant Number mean: 0.0109483 max: 0.449487
deltaT = 4.00395e-05
Time = 0.000225232

PIMPLE: iteration 1
smoothSolver:  Solving for Ux, Initial residual = 1.27863e-06, Final residual = 6.27962e-14, No Iterations 1
smoothSolver:  Solving for Uy, Initial residual = 1.14526e-06, Final residual = 5.70172e-14, No Iterations 1
smoothSolver:  Solving for Uz, Initial residual = 1.10349e-06, Final residual = 5.3817e-14, No Iterations 1
GAMG:  Solving for p, Initial residual = 0.999975, Final residual = 0.0419485, No Iterations 1
GAMG:  Solving for p, Initial residual = 0.0489286, Final residual = 0.00257718, No Iterations 2
time step continuity errors : sum local = 4.73542e-06, global = 3.47391e-07, cumulative = 2.88217e-06
GAMG:  Solving for p, Initial residual = 0.999752, Final residual = 0.0419392, No Iterations 1
GAMG:  Solving for p, Initial residual = 0.048923, Final residual = 8.27811e-07, No Iterations 11
time step continuity errors : sum local = 1.52108e-09, global = 8.13243e-11, cumulative = 2.88225e-06
PIMPLE: iteration 2
smoothSolver:  Solving for Ux, Initial residual = 0.116846, Final residual = 4.87477e-08, No Iterations 2
smoothSolver:  Solving for Uy, Initial residual = 0.0718667, Final residual = 2.74372e-08, No Iterations 2
smoothSolver:  Solving for Uz, Initial residual = 0.0694266, Final residual = 2.62782e-08, No Iterations 2
GAMG:  Solving for p, Initial residual = 0.566164, Final residual = 0.0237647, No Iterations 1
GAMG:  Solving for p, Initial residual = 0.148619, Final residual = 0.00773666, No Iterations 2
time step continuity errors : sum local = 4.90933e-06, global = -3.60789e-07, cumulative = 2.52146e-06
GAMG:  Solving for p, Initial residual = 0.225763, Final residual = 0.0119931, No Iterations 1
GAMG:  Solving for p, Initial residual = 0.0338315, Final residual = 7.35366e-07, No Iterations 11
time step continuity errors : sum local = 1.72911e-10, global = -1.00092e-11, cumulative = 2.52145e-06
smoothSolver:  Solving for omega, Initial residual = 0.00224902, Final residual = 3.73449e-09, No Iterations 2
smoothSolver:  Solving for k, Initial residual = 0.0741122, Final residual = 6.62043e-08, No Iterations 2
ExecutionTime = 0.32 s  ClockTime = 0 s

Courant Number mean: 0.0121625 max: 0.490251
deltaT = 4.08358e-05
Time = 0.000266068

PIMPLE: iteration 1
smoothSolver:  Solving for Ux, Initial residual = 1.16798e-06, Final residual = 5.81147e-14, No Iterations 1
smoothSolver:  Solving for Uy, Initial residual = 1.05309e-06, Final residual = 5.39378e-14, No Iterations 1
smoothSolver:  Solving for Uz, Initial residual = 1.01212e-06, Final residual = 5.13921e-14, No Iterations 1
GAMG:  Solving for p, Initial residual = 0.999979, Final residual = 0.0415523, No Iterations 1
GAMG:  Solving for p, Initial residual = 0.0484521, Final residual = 0.00249699, No Iterations 2
time step continuity errors : sum local = 4.44339e-06, global = 3.25964e-07, cumulative = 2.84741e-06
GAMG:  Solving for p, Initial residual = 0.999757, Final residual = 0.0415432, No Iterations 1
GAMG:  Solving for p, Initial residual = 0.0484466, Final residual = 8.01927e-07, No Iterations 11
time step continuity errors : sum local = 1.42705e-09, global = 7.63268e-11, cumulative = 2.84749e-06
PIMPLE: iteration 2
smoothSolver:  Solving for Ux, Initial residual = 0.106943, Final residual = 4.55377e-08, No Iterations 2
smoothSolver:  Solving for Uy, Initial residual = 0.0676892, Final residual = 2.66281e-08, No Iterations 2
smoothSolver:  Solving for Uz, Initial residual = 0.0652578, Final residual = 2.55859e-08, No Iterations 2
GAMG:  Solving for p, Initial residual = 0.57884, Final residual = 0.0240876, No Iterations 1
GAMG:  Solving for p, Initial residual = 0.153339, Final residual = 0.00782224, No Iterations 2
time step continuity errors : sum local = 4.56172e-06, global = -3.35038e-07, cumulative = 2.51245e-06
GAMG:  Solving for p, Initial residual = 0.229543, Final residual = 0.0122244, No Iterations 1
GAMG:  Solving for p, Initial residual = 0.0346638, Final residual = 7.53289e-07, No Iterations 11
time step continuity errors : sum local = 1.60156e-10, global = -9.27438e-12, cumulative = 2.51244e-06
smoothSolver:  Solving for omega, Initial residual = 0.00217226, Final residual = 3.86841e-09, No Iterations 2
smoothSolver:  Solving for k, Initial residual = 0.0601068, Final residual = 5.76572e-08, No Iterations 2
ExecutionTime = 0.35 s  ClockTime = 0 s

Courant Number mean: 0.0124009 max: 0.491121
deltaT = 4.1574e-05
Time = 0.000307642

PIMPLE: iteration 1
smoothSolver:  Solving for Ux, Initial residual = 1.12924e-06, Final residual = 5.6422e-14, No Iterations 1
smoothSolver:  Solving for Uy, Initial residual = 1.01442e-06, Final residual = 5.27416e-14, No Iterations 1
smoothSolver:  Solving for Uz, Initial residual = 9.73532e-07, Final residual = 9.73532e-07, No Iterations 0
GAMG:  Solving for p, Initial residual = 0.999981, Final residual = 0.0412117, No Iterations 1
GAMG:  Solving for p, Initial residual = 0.0480582, Final residual = 0.00242552, No Iterations 2
time step continuity errors : sum local = 4.18822e-06, global = 3.0711e-07, cumulative = 2.81955e-06
GAMG:  Solving for p, Initial residual = 0.99976, Final residual = 0.0412027, No Iterations 1
GAMG:  Solving for p, Initial residual = 0.0480527, Final residual = 7.78794e-07, No Iterations 11
time step continuity errors : sum local = 1.34479e-09, global = 7.19619e-11, cumulative = 2.81963e-06
PIMPLE: iteration 2
smoothSolver:  Solving for Ux, Initial residual = 0.0994006, Final residual = 4.3445e-08, No Iterations 2
smoothSolver:  Solving for Uy, Initial residual = 0.064582, Final residual = 2.61084e-08, No Iterations 2
smoothSolver:  Solving for Uz, Initial residual = 0.0621604, Final residual = 2.51875e-08, No Iterations 2
GAMG:  Solving for p, Initial residual = 0.59095, Final residual = 0.0244008, No Iterations 1
GAMG:  Solving for p, Initial residual = 0.158165, Final residual = 0.00791011, No Iterations 2
time step continuity errors : sum local = 4.29258e-06, global = -3.15158e-07, cumulative = 2.50447e-06
GAMG:  Solving for p, Initial residual = 0.233632, Final residual = 0.0124749, No Iterations 1
GAMG:  Solving for p, Initial residual = 0.0356, Final residual = 7.73525e-07, No Iterations 11
time step continuity errors : sum local = 1.5027e-10, global = -8.70422e-12, cumulative = 2.50446e-06
smoothSolver:  Solving for omega, Initial residual = 0.00209647, Final residual = 3.9928e-09, No Iterations 2
smoothSolver:  Solving for k, Initial residual = 0.0501747, Final residual = 5.14521e-08, No Iterations 2
ExecutionTime = 0.38 s  ClockTime = 0 s

Courant Number mean: 0.0126219 max: 0.491444
deltaT = 4.22978e-05
Time = 0.00034994

PIMPLE: iteration 1
smoothSolver:  Solving for Ux, Initial residual = 1.10584e-06, Final residual = 5.54443e-14, No Iterations 1
smoothSolver:  Solving for Uy, Initial residual = 9.86404e-07, Final residual = 9.86404e-07, No Iterations 0
smoothSolver:  Solving for Uz, Initial residual = 9.45237e-07, Final residual = 9.45237e-07, No Iterations 0
GAMG:  Solving for p, Initial residual = 0.999982, Final residual = 0.0409151, No Iterations 1
GAMG:  Solving for p, Initial residual = 0.0477328, Final residual = 0.00236161, No Iterations 2
time step continuity errors : sum local = 3.96651e-06, global = 2.90647e-07, cumulative = 2.79511e-06
GAMG:  Solving for p, Initial residual = 0.999762, Final residual = 0.0409061, No Iterations 1
GAMG:  Solving for p, Initial residual = 0.0477274, Final residual = 7.58061e-07, No Iterations 11
time step continuity errors : sum local = 1.27324e-09, global = 6.81702e-11, cumulative = 2.79517e-06
PIMPLE: iteration 2
smoothSolver:  Solving for Ux, Initial residual = 0.093054, Final residual = 4.20525e-08, No Iterations 2
smoothSolver:  Solving for Uy, Initial residual = 0.0619146, Final residual = 2.5737e-08, No Iterations 2
smoothSolver:  Solving for Uz, Initial residual = 0.0595106, Final residual = 2.49809e-08, No Iterations 2
GAMG:  Solving for p, Initial residual = 0.60193, Final residual = 0.0246854, No Iterations 1
GAMG:  Solving for p, Initial residual = 0.162818, Final residual = 0.00799024, No Iterations 2
time step continuity errors : sum local = 4.0601e-06, global = -2.97883e-07, cumulative = 2.49729e-06
GAMG:  Solving for p, Initial residual = 0.237109, Final residual = 0.0126941, No Iterations 1
GAMG:  Solving for p, Initial residual = 0.0364472, Final residual = 7.91818e-07, No Iterations 11
time step continuity errors : sum local = 1.41741e-10, global = -8.21257e-12, cumulative = 2.49728e-06
smoothSolver:  Solving for omega, Initial residual = 0.00202321, Final residual = 4.12123e-09, No Iterations 2
smoothSolver:  Solving for k, Initial residual = 0.0428137, Final residual = 4.69251e-08, No Iterations 2
ExecutionTime = 0.41 s  ClockTime = 0 s

Courant Number mean: 0.0128386 max: 0.491758
deltaT = 4.30068e-05
Time = 0.000392947

PIMPLE: iteration 1
smoothSolver:  Solving for Ux, Initial residual = 1.09205e-06, Final residual = 5.48636e-14, No Iterations 1
smoothSolver:  Solving for Uy, Initial residual = 9.65445e-07, Final residual = 9.65445e-07, No Iterations 0
smoothSolver:  Solving for Uz, Initial residual = 9.23961e-07, Final residual = 9.23961e-07, No Iterations 0
GAMG:  Solving for p, Initial residual = 0.999982, Final residual = 0.0406568, No Iterations 1
GAMG:  Solving for p, Initial residual = 0.0474658, Final residual = 0.00230415, No Iterations 2
time step continuity errors : sum local = 3.77174e-06, global = 2.76127e-07, cumulative = 2.77341e-06
GAMG:  Solving for p, Initial residual = 0.999763, Final residual = 0.040648, No Iterations 1
GAMG:  Solving for p, Initial residual = 0.0474604, Final residual = 7.39404e-07, No Iterations 11
time step continuity errors : sum local = 1.21037e-09, global = 6.48418e-11, cumulative = 2.77347e-06
PIMPLE: iteration 2
smoothSolver:  Solving for Ux, Initial residual = 0.087649, Final residual = 4.10455e-08, No Iterations 2
smoothSolver:  Solving for Uy, Initial residual = 0.059594, Final residual = 2.54615e-08, No Iterations 2
smoothSolver:  Solving for Uz, Initial residual = 0.0572128, Final residual = 2.48593e-08, No Iterations 2
GAMG:  Solving for p, Initial residual = 0.611932, Final residual = 0.0249444, No Iterations 1
GAMG:  Solving for p, Initial residual = 0.167316, Final residual = 0.00806386, No Iterations 2
time step continuity errors : sum local = 3.85669e-06, global = -2.82729e-07, cumulative = 2.49074e-06
GAMG:  Solving for p, Initial residual = 0.240046, Final residual = 0.0128861, No Iterations 1
GAMG:  Solving for p, Initial residual = 0.0372192, Final residual = 8.08424e-07, No Iterations 11
time step continuity errors : sum local = 1.34285e-10, global = -7.78249e-12, cumulative = 2.49074e-06
smoothSolver:  Solving for omega, Initial residual = 0.00195216, Final residual = 4.24501e-09, No Iterations 2
smoothSolver:  Solving for k, Initial residual = 0.0371688, Final residual = 4.33927e-08, No Iterations 2
ExecutionTime = 0.45 s  ClockTime = 0 s

Courant Number mean: 0.013051 max: 0.492063
deltaT = 4.37004e-05
Time = 0.000436647

PIMPLE: iteration 1
smoothSolver:  Solving for Ux, Initial residual = 1.08434e-06, Final residual = 5.45615e-14, No Iterations 1
smoothSolver:  Solving for Uy, Initial residual = 9.49714e-07, Final residual = 9.49714e-07, No Iterations 0
smoothSolver:  Solving for Uz, Initial residual = 9.07819e-07, Final residual = 9.07819e-07, No Iterations 0
GAMG:  Solving for p, Initial residual = 0.999983, Final residual = 0.0404304, No Iterations 1
GAMG:  Solving for p, Initial residual = 0.047246, Final residual = 0.00225229, No Iterations 2
time step continuity errors : sum local = 3.59904e-06, global = 2.63216e-07, cumulative = 2.75395e-06
GAMG:  Solving for p, Initial residual = 0.999765, Final residual = 0.0404217, No Iterations 1
GAMG:  Solving for p, Initial residual = 0.0472407, Final residual = 7.22567e-07, No Iterations 11
time step continuity errors : sum local = 1.15464e-09, global = 6.18941e-11, cumulative = 2.75401e-06
PIMPLE: iteration 2
smoothSolver:  Solving for Ux, Initial residual = 0.082996, Final residual = 4.04171e-08, No Iterations 2
smoothSolver:  Solving for Uy, Initial residual = 0.0575521, Final residual = 2.52722e-08, No Iterations 2
smoothSolver:  Solving for Uz, Initial residual = 0.0552006, Final residual = 2.4783e-08, No Iterations 2
GAMG:  Solving for p, Initial residual = 0.621064, Final residual = 0.0251823, No Iterations 1
GAMG:  Solving for p, Initial residual = 0.171655, Final residual = 0.00813128, No Iterations 2
time step continuity errors : sum local = 3.67691e-06, global = -2.69301e-07, cumulative = 2.48471e-06
GAMG:  Solving for p, Initial residual = 0.242481, Final residual = 0.0130529, No Iterations 1
GAMG:  Solving for p, Initial residual = 0.0379181, Final residual = 8.23416e-07, No Iterations 11
time step continuity errors : sum local = 1.27707e-10, global = -7.40296e-12, cumulative = 2.48471e-06
smoothSolver:  Solving for omega, Initial residual = 0.00188348, Final residual = 4.369e-09, No Iterations 2
smoothSolver:  Solving for k, Initial residual = 0.0327027, Final residual = 4.04535e-08, No Iterations 2
ExecutionTime = 0.48 s  ClockTime = 0 s

Courant Number mean: 0.0132588 max: 0.492352
deltaT = 4.43793e-05
Time = 0.000481027

PIMPLE: iteration 1
smoothSolver:  Solving for Ux, Initial residual = 1.08038e-06, Final residual = 5.44439e-14, No Iterations 1
smoothSolver:  Solving for Uy, Initial residual = 9.37591e-07, Final residual = 9.37591e-07, No Iterations 0
smoothSolver:  Solving for Uz, Initial residual = 8.95498e-07, Final residual = 8.95498e-07, No Iterations 0
GAMG:  Solving for p, Initial residual = 0.999983, Final residual = 0.0402296, No Iterations 1
GAMG:  Solving for p, Initial residual = 0.0470608, Final residual = 0.00220531, No Iterations 2
time step continuity errors : sum local = 3.44483e-06, global = 2.51653e-07, cumulative = 2.73636e-06
GAMG:  Solving for p, Initial residual = 0.999766, Final residual = 0.0402209, No Iterations 1
GAMG:  Solving for p, Initial residual = 0.0470554, Final residual = 7.07307e-07, No Iterations 11
time step continuity errors : sum local = 1.10487e-09, global = 5.92642e-11, cumulative = 2.73642e-06
PIMPLE: iteration 2
smoothSolver:  Solving for Ux, Initial residual = 0.0789599, Final residual = 3.99402e-08, No Iterations 2
smoothSolver:  Solving for Uy, Initial residual = 0.0557424, Final residual = 2.51363e-08, No Iterations 2
smoothSolver:  Solving for Uz, Initial residual = 0.0534218, Final residual = 2.48061e-08, No Iterations 2
GAMG:  Solving for p, Initial residual = 0.629445, Final residual = 0.0254042, No Iterations 1
GAMG:  Solving for p, Initial residual = 0.175836, Final residual = 0.00819375, No Iterations 2
time step continuity errors : sum local = 3.51677e-06, global = -2.57307e-07, cumulative = 2.47911e-06
GAMG:  Solving for p, Initial residual = 0.244506, Final residual = 0.0131985, No Iterations 1
GAMG:  Solving for p, Initial residual = 0.0385585, Final residual = 8.371e-07, No Iterations 11
time step continuity errors : sum local = 1.21856e-10, global = -7.06533e-12, cumulative = 2.4791e-06
smoothSolver:  Solving for omega, Initial residual = 0.00181711, Final residual = 4.49158e-09, No Iterations 2
smoothSolver:  Solving for k, Initial residual = 0.0290883, Final residual = 3.80196e-08, No Iterations 2
ExecutionTime = 0.51 s  ClockTime = 0 s

Courant Number mean: 0.0134623 max: 0.492612
deltaT = 4.50449e-05
Time = 0.000526071

PIMPLE: iteration 1
smoothSolver:  Solving for Ux, Initial residual = 1.07887e-06, Final residual = 5.44514e-14, No Iterations 1
smoothSolver:  Solving for Uy, Initial residual = 9.28221e-07, Final residual = 9.28221e-07, No Iterations 0
smoothSolver:  Solving for Uz, Initial residual = 8.85914e-07, Final residual = 8.85914e-07, No Iterations 0
GAMG:  Solving for p, Initial residual = 0.999983, Final residual = 0.0400519, No Iterations 1
GAMG:  Solving for p, Initial residual = 0.0469048, Final residual = 0.00216266, No Iterations 2
time step continuity errors : sum local = 3.30638e-06, global = 2.41242e-07, cumulative = 2.72035e-06
GAMG:  Solving for p, Initial residual = 0.999768, Final residual = 0.0400433, No Iterations 1
GAMG:  Solving for p, Initial residual = 0.0468995, Final residual = 6.93429e-07, No Iterations 11
time step continuity errors : sum local = 1.06016e-09, global = 5.6904e-11, cumulative = 2.7204e-06
PIMPLE: iteration 2
smoothSolver:  Solving for Ux, Initial residual = 0.075428, Final residual = 3.95914e-08, No Iterations 2
smoothSolver:  Solving for Uy, Initial residual = 0.0541287, Final residual = 2.50372e-08, No Iterations 2
smoothSolver:  Solving for Uz, Initial residual = 0.0518355, Final residual = 2.49631e-08, No Iterations 2
GAMG:  Solving for p, Initial residual = 0.637154, Final residual = 0.0256086, No Iterations 1
GAMG:  Solving for p, Initial residual = 0.179848, Final residual = 0.00825215, No Iterations 2
time step continuity errors : sum local = 3.37342e-06, global = -2.4655e-07, cumulative = 2.47385e-06
GAMG:  Solving for p, Initial residual = 0.246199, Final residual = 0.013326, No Iterations 1
GAMG:  Solving for p, Initial residual = 0.0391487, Final residual = 8.49619e-07, No Iterations 11
time step continuity errors : sum local = 1.16623e-10, global = -6.76324e-12, cumulative = 2.47385e-06
smoothSolver:  Solving for omega, Initial residual = 0.00175319, Final residual = 4.61333e-09, No Iterations 2
smoothSolver:  Solving for k, Initial residual = 0.0261061, Final residual = 3.57399e-08, No Iterations 2
ExecutionTime = 0.54 s  ClockTime = 0 s

Courant Number mean: 0.0136618 max: 0.492875
deltaT = 4.56961e-05
Time = 0.000571768

PIMPLE: iteration 1
smoothSolver:  Solving for Ux, Initial residual = 1.07875e-06, Final residual = 5.45005e-14, No Iterations 1
smoothSolver:  Solving for Uy, Initial residual = 9.21189e-07, Final residual = 9.21189e-07, No Iterations 0
smoothSolver:  Solving for Uz, Initial residual = 8.78434e-07, Final residual = 8.78434e-07, No Iterations 0
GAMG:  Solving for p, Initial residual = 0.999984, Final residual = 0.0398936, No Iterations 1
GAMG:  Solving for p, Initial residual = 0.0467738, Final residual = 0.00212385, No Iterations 2
time step continuity errors : sum local = 3.18129e-06, global = 2.31819e-07, cumulative = 2.70566e-06
GAMG:  Solving for p, Initial residual = 0.999769, Final residual = 0.0398851, No Iterations 1
GAMG:  Solving for p, Initial residual = 0.0467686, Final residual = 6.80781e-07, No Iterations 11
time step continuity errors : sum local = 1.01975e-09, global = 5.47731e-11, cumulative = 2.70572e-06
PIMPLE: iteration 2
smoothSolver:  Solving for Ux, Initial residual = 0.0723215, Final residual = 3.94283e-08, No Iterations 2
smoothSolver:  Solving for Uy, Initial residual = 0.0526801, Final residual = 2.50157e-08, No Iterations 2
smoothSolver:  Solving for Uz, Initial residual = 0.0504131, Final residual = 2.51926e-08, No Iterations 2
GAMG:  Solving for p, Initial residual = 0.644232, Final residual = 0.025796, No Iterations 1
GAMG:  Solving for p, Initial residual = 0.183689, Final residual = 0.00830626, No Iterations 2
time step continuity errors : sum local = 3.24405e-06, global = -2.36833e-07, cumulative = 2.46889e-06
GAMG:  Solving for p, Initial residual = 0.247568, Final residual = 0.0134362, No Iterations 1
GAMG:  Solving for p, Initial residual = 0.0396877, Final residual = 8.60904e-07, No Iterations 11
time step continuity errors : sum local = 1.1191e-10, global = -6.49105e-12, cumulative = 2.46888e-06
smoothSolver:  Solving for omega, Initial residual = 0.0016915, Final residual = 4.73815e-09, No Iterations 2
smoothSolver:  Solving for k, Initial residual = 0.0236067, Final residual = 3.37889e-08, No Iterations 2
ExecutionTime = 0.58 s  ClockTime = 0 s

Courant Number mean: 0.0138571 max: 0.493263
deltaT = 4.63203e-05
Time = 0.000618088

PIMPLE: iteration 1
smoothSolver:  Solving for Ux, Initial residual = 1.07947e-06, Final residual = 5.45286e-14, No Iterations 1
smoothSolver:  Solving for Uy, Initial residual = 9.15397e-07, Final residual = 9.15397e-07, No Iterations 0
smoothSolver:  Solving for Uz, Initial residual = 8.72423e-07, Final residual = 8.72423e-07, No Iterations 0
GAMG:  Solving for p, Initial residual = 0.999984, Final residual = 0.0397488, No Iterations 1
GAMG:  Solving for p, Initial residual = 0.0466645, Final residual = 0.00208847, No Iterations 2
time step continuity errors : sum local = 3.06687e-06, global = 2.2319e-07, cumulative = 2.69207e-06
GAMG:  Solving for p, Initial residual = 0.99977, Final residual = 0.0397403, No Iterations 1
GAMG:  Solving for p, Initial residual = 0.0466592, Final residual = 6.69238e-07, No Iterations 11
time step continuity errors : sum local = 9.82773e-10, global = 5.28249e-11, cumulative = 2.69212e-06
PIMPLE: iteration 2
smoothSolver:  Solving for Ux, Initial residual = 0.0695681, Final residual = 3.93431e-08, No Iterations 2
smoothSolver:  Solving for Uy, Initial residual = 0.0513729, Final residual = 2.50444e-08, No Iterations 2
smoothSolver:  Solving for Uz, Initial residual = 0.0491303, Final residual = 2.54466e-08, No Iterations 2
GAMG:  Solving for p, Initial residual = 0.650768, Final residual = 0.0259682, No Iterations 1
GAMG:  Solving for p, Initial residual = 0.187374, Final residual = 0.00835573, No Iterations 2
time step continuity errors : sum local = 3.12534e-06, global = -2.26917e-07, cumulative = 2.46521e-06
GAMG:  Solving for p, Initial residual = 0.24871, Final residual = 0.0135306, No Iterations 1
GAMG:  Solving for p, Initial residual = 0.0401704, Final residual = 8.70957e-07, No Iterations 11
time step continuity errors : sum local = 1.07591e-10, global = -6.24195e-12, cumulative = 2.4652e-06
smoothSolver:  Solving for omega, Initial residual = 0.00163114, Final residual = 4.85921e-09, No Iterations 2
smoothSolver:  Solving for k, Initial residual = 0.0214789, Final residual = 3.21295e-08, No Iterations 2
ExecutionTime = 0.61 s  ClockTime = 0 s

Courant Number mean: 0.0140442 max: 0.49369
deltaT = 4.69123e-05
Time = 0.000665

PIMPLE: iteration 1
smoothSolver:  Solving for Ux, Initial residual = 1.08007e-06, Final residual = 5.45084e-14, No Iterations 1
smoothSolver:  Solving for Uy, Initial residual = 9.10688e-07, Final residual = 9.10688e-07, No Iterations 0
smoothSolver:  Solving for Uz, Initial residual = 8.6735e-07, Final residual = 8.6735e-07, No Iterations 0
GAMG:  Solving for p, Initial residual = 0.999984, Final residual = 0.0396146, No Iterations 1
GAMG:  Solving for p, Initial residual = 0.0465745, Final residual = 0.00205583, No Iterations 2
time step continuity errors : sum local = 2.96084e-06, global = 2.14245e-07, cumulative = 2.67945e-06
GAMG:  Solving for p, Initial residual = 0.99977, Final residual = 0.0396062, No Iterations 1
GAMG:  Solving for p, Initial residual = 0.0465693, Final residual = 6.58693e-07, No Iterations 11
time step continuity errors : sum local = 9.48673e-10, global = 5.10293e-11, cumulative = 2.6795e-06
PIMPLE: iteration 2
smoothSolver:  Solving for Ux, Initial residual = 0.0671158, Final residual = 3.92763e-08, No Iterations 2
smoothSolver:  Solving for Uy, Initial residual = 0.0501881, Final residual = 2.50789e-08, No Iterations 2
smoothSolver:  Solving for Uz, Initial residual = 0.0479704, Final residual = 2.57023e-08, No Iterations 2
GAMG:  Solving for p, Initial residual = 0.656802, Final residual = 0.0261268, No Iterations 1
GAMG:  Solving for p, Initial residual = 0.190897, Final residual = 0.00840268, No Iterations 2
time step continuity errors : sum local = 3.01631e-06, global = -2.18741e-07, cumulative = 2.46076e-06
GAMG:  Solving for p, Initial residual = 0.249539, Final residual = 0.0136115, No Iterations 1
GAMG:  Solving for p, Initial residual = 0.0406195, Final residual = 8.80215e-07, No Iterations 11
time step continuity errors : sum local = 1.03647e-10, global = -6.01412e-12, cumulative = 2.46075e-06
smoothSolver:  Solving for omega, Initial residual = 0.00157213, Final residual = 4.96708e-09, No Iterations 2
smoothSolver:  Solving for k, Initial residual = 0.0196441, Final residual = 3.05385e-08, No Iterations 2
ExecutionTime = 0.64 s  ClockTime = 0 s

Courant Number mean: 0.0142217 max: 0.494044
deltaT = 4.74779e-05
Time = 0.000712478

PIMPLE: iteration 1
smoothSolver:  Solving for Ux, Initial residual = 1.08047e-06, Final residual = 5.44629e-14, No Iterations 1
smoothSolver:  Solving for Uy, Initial residual = 9.06702e-07, Final residual = 9.06702e-07, No Iterations 0
smoothSolver:  Solving for Uz, Initial residual = 8.63187e-07, Final residual = 8.63187e-07, No Iterations 0
GAMG:  Solving for p, Initial residual = 0.999984, Final residual = 0.0394907, No Iterations 1
GAMG:  Solving for p, Initial residual = 0.0464996, Final residual = 0.00202631, No Iterations 2
time step continuity errors : sum local = 2.86345e-06, global = 2.06915e-07, cumulative = 2.66766e-06
GAMG:  Solving for p, Initial residual = 0.999771, Final residual = 0.0394823, No Iterations 1
GAMG:  Solving for p, Initial residual = 0.0464944, Final residual = 6.49041e-07, No Iterations 11
time step continuity errors : sum local = 9.17193e-10, global = 4.9373e-11, cumulative = 2.66771e-06
PIMPLE: iteration 2
smoothSolver:  Solving for Ux, Initial residual = 0.0649124, Final residual = 3.92476e-08, No Iterations 2
smoothSolver:  Solving for Uy, Initial residual = 0.0491147, Final residual = 2.51415e-08, No Iterations 2
smoothSolver:  Solving for Uz, Initial residual = 0.0469194, Final residual = 2.59546e-08, No Iterations 2
GAMG:  Solving for p, Initial residual = 0.662415, Final residual = 0.0262727, No Iterations 1
GAMG:  Solving for p, Initial residual = 0.194258, Final residual = 0.00844588, No Iterations 2
time step continuity errors : sum local = 2.91579e-06, global = -2.11209e-07, cumulative = 2.4565e-06
GAMG:  Solving for p, Initial residual = 0.250122, Final residual = 0.0136782, No Iterations 1
GAMG:  Solving for p, Initial residual = 0.0410258, Final residual = 8.88534e-07, No Iterations 11
time step continuity errors : sum local = 1.00019e-10, global = -5.80451e-12, cumulative = 2.4565e-06
smoothSolver:  Solving for omega, Initial residual = 0.00151504, Final residual = 5.05034e-09, No Iterations 2
smoothSolver:  Solving for k, Initial residual = 0.0180544, Final residual = 2.91635e-08, No Iterations 2
ExecutionTime = 0.67 s  ClockTime = 1 s

Courant Number mean: 0.0143913 max: 0.494404
deltaT = 4.80153e-05
Time = 0.000760493

PIMPLE: iteration 1
smoothSolver:  Solving for Ux, Initial residual = 1.08059e-06, Final residual = 5.44086e-14, No Iterations 1
smoothSolver:  Solving for Uy, Initial residual = 9.03368e-07, Final residual = 9.03368e-07, No Iterations 0
smoothSolver:  Solving for Uz, Initial residual = 8.59615e-07, Final residual = 8.59615e-07, No Iterations 0
GAMG:  Solving for p, Initial residual = 0.999985, Final residual = 0.0393775, No Iterations 1
GAMG:  Solving for p, Initial residual = 0.0464393, Final residual = 0.0046101, No Iterations 1
time step continuity errors : sum local = 6.3944e-06, global = 3.36961e-07, cumulative = 2.79346e-06
GAMG:  Solving for p, Initial residual = 0.999778, Final residual = 0.0393695, No Iterations 1
GAMG:  Solving for p, Initial residual = 0.0464344, Final residual = 6.40196e-07, No Iterations 11
time step continuity errors : sum local = 8.87984e-10, global = 4.78371e-11, cumulative = 2.79351e-06
PIMPLE: iteration 2
smoothSolver:  Solving for Ux, Initial residual = 0.0629297, Final residual = 3.92617e-08, No Iterations 2
smoothSolver:  Solving for Uy, Initial residual = 0.0481386, Final residual = 2.52309e-08, No Iterations 2
smoothSolver:  Solving for Uz, Initial residual = 0.0459622, Final residual = 2.62209e-08, No Iterations 2
GAMG:  Solving for p, Initial residual = 0.667606, Final residual = 0.0264071, No Iterations 1
GAMG:  Solving for p, Initial residual = 0.197473, Final residual = 0.019648, No Iterations 1
time step continuity errors : sum local = 6.53531e-06, global = -3.33603e-07, cumulative = 2.4599e-06
GAMG:  Solving for p, Initial residual = 0.116659, Final residual = 0.00620517, No Iterations 2
GAMG:  Solving for p, Initial residual = 0.151373, Final residual = 4.37777e-07, No Iterations 12
time step continuity errors : sum local = 4.34892e-11, global = -2.41444e-12, cumulative = 2.4599e-06
smoothSolver:  Solving for omega, Initial residual = 0.00145966, Final residual = 5.11177e-09, No Iterations 2
smoothSolver:  Solving for k, Initial residual = 0.0166588, Final residual = 2.79035e-08, No Iterations 2
ExecutionTime = 0.7 s  ClockTime = 1 s

Courant Number mean: 0.0145525 max: 0.495199
deltaT = 4.84808e-05
Time = 0.000808974

PIMPLE: iteration 1
smoothSolver:  Solving for Ux, Initial residual = 1.08299e-06, Final residual = 5.43846e-14, No Iterations 1
smoothSolver:  Solving for Uy, Initial residual = 8.99232e-07, Final residual = 8.99232e-07, No Iterations 0
smoothSolver:  Solving for Uz, Initial residual = 8.56126e-07, Final residual = 8.56126e-07, No Iterations 0
GAMG:  Solving for p, Initial residual = 0.999984, Final residual = 0.0392634, No Iterations 1
GAMG:  Solving for p, Initial residual = 0.0463762, Final residual = 0.0045453, No Iterations 1
time step continuity errors : sum local = 6.18034e-06, global = 3.27804e-07, cumulative = 2.78771e-06
GAMG:  Solving for p, Initial residual = 0.999778, Final residual = 0.0392554, No Iterations 1
GAMG:  Solving for p, Initial residual = 0.0463713, Final residual = 6.30276e-07, No Iterations 11
time step continuity errors : sum local = 8.57007e-10, global = 4.62249e-11, cumulative = 2.78775e-06
PIMPLE: iteration 2
smoothSolver:  Solving for Ux, Initial residual = 0.0610176, Final residual = 3.90587e-08, No Iterations 2
smoothSolver:  Solving for Uy, Initial residual = 0.0472334, Final residual = 2.52511e-08, No Iterations 2
smoothSolver:  Solving for Uz, Initial residual = 0.0450742, Final residual = 2.63966e-08, No Iterations 2
GAMG:  Solving for p, Initial residual = 0.673596, Final residual = 0.0265624, No Iterations 1
GAMG:  Solving for p, Initial residual = 0.201387, Final residual = 0.0197642, No Iterations 1
time step continuity errors : sum local = 6.31464e-06, global = -3.24631e-07, cumulative = 2.46312e-06
GAMG:  Solving for p, Initial residual = 0.116233, Final residual = 0.00621666, No Iterations 2
GAMG:  Solving for p, Initial residual = 0.148448, Final residual = 4.2851e-07, No Iterations 12
time step continuity errors : sum local = 4.19582e-11, global = -2.33001e-12, cumulative = 2.46312e-06
smoothSolver:  Solving for omega, Initial residual = 0.0014051, Final residual = 5.13529e-09, No Iterations 2
smoothSolver:  Solving for k, Initial residual = 0.0154127, Final residual = 2.67218e-08, No Iterations 2
ExecutionTime = 0.73 s  ClockTime = 1 s

Courant Number mean: 0.014692 max: 0.498493
deltaT = 4.86273e-05
Time = 0.000857601

PIMPLE: iteration 1
smoothSolver:  Solving for Ux, Initial residual = 1.07495e-06, Final residual = 5.35552e-14, No Iterations 1
smoothSolver:  Solving for Uy, Initial residual = 8.90256e-07, Final residual = 8.90256e-07, No Iterations 0
smoothSolver:  Solving for Uz, Initial residual = 8.47271e-07, Final residual = 8.47271e-07, No Iterations 0
GAMG:  Solving for p, Initial residual = 0.999985, Final residual = 0.0391594, No Iterations 1
GAMG:  Solving for p, Initial residual = 0.0463281, Final residual = 0.00448648, No Iterations 1
time step continuity errors : sum local = 5.94667e-06, global = 3.17428e-07, cumulative = 2.78055e-06
GAMG:  Solving for p, Initial residual = 0.999779, Final residual = 0.0391515, No Iterations 1
GAMG:  Solving for p, Initial residual = 0.0463232, Final residual = 6.21142e-07, No Iterations 11
time step continuity errors : sum local = 8.23308e-10, global = 4.44627e-11, cumulative = 2.78059e-06
PIMPLE: iteration 2
smoothSolver:  Solving for Ux, Initial residual = 0.0592244, Final residual = 3.83519e-08, No Iterations 2
smoothSolver:  Solving for Uy, Initial residual = 0.0463402, Final residual = 2.48954e-08, No Iterations 2
smoothSolver:  Solving for Uz, Initial residual = 0.0441948, Final residual = 2.61631e-08, No Iterations 2
GAMG:  Solving for p, Initial residual = 0.678627, Final residual = 0.0266937, No Iterations 1
GAMG:  Solving for p, Initial residual = 0.204777, Final residual = 0.0198696, No Iterations 1
time step continuity errors : sum local = 6.0713e-06, global = -3.13889e-07, cumulative = 2.4667e-06
GAMG:  Solving for p, Initial residual = 0.11592, Final residual = 0.00622644, No Iterations 2
GAMG:  Solving for p, Initial residual = 0.145894, Final residual = 4.20416e-07, No Iterations 12
time step continuity errors : sum local = 4.02758e-11, global = -2.23681e-12, cumulative = 2.4667e-06
smoothSolver:  Solving for omega, Initial residual = 0.00134493, Final residual = 5.02866e-09, No Iterations 2
smoothSolver:  Solving for k, Initial residual = 0.0142222, Final residual = 2.50474e-08, No Iterations 2
ExecutionTime = 0.77 s  ClockTime = 1 s

Courant Number mean: 0.014735 max: 0.498474
deltaT = 4.87762e-05
Time = 0.000906378

PIMPLE: iteration 1
smoothSolver:  Solving for Ux, Initial residual = 1.06746e-06, Final residual = 5.28128e-14, No Iterations 1
smoothSolver:  Solving for Uy, Initial residual = 8.82535e-07, Final residual = 8.82535e-07, No Iterations 0
smoothSolver:  Solving for Uz, Initial residual = 8.39541e-07, Final residual = 8.39541e-07, No Iterations 0
GAMG:  Solving for p, Initial residual = 0.999985, Final residual = 0.0390649, No Iterations 1
GAMG:  Solving for p, Initial residual = 0.0462923, Final residual = 0.00443271, No Iterations 1
time step continuity errors : sum local = 5.73335e-06, global = 3.07999e-07, cumulative = 2.7747e-06
GAMG:  Solving for p, Initial residual = 0.999779, Final residual = 0.039057, No Iterations 1
GAMG:  Solving for p, Initial residual = 0.0462874, Final residual = 6.12682e-07, No Iterations 11
time step continuity errors : sum local = 7.92461e-10, global = 4.28517e-11, cumulative = 2.77474e-06
PIMPLE: iteration 2
smoothSolver:  Solving for Ux, Initial residual = 0.0576096, Final residual = 3.77612e-08, No Iterations 2
smoothSolver:  Solving for Uy, Initial residual = 0.0455364, Final residual = 2.46108e-08, No Iterations 2
smoothSolver:  Solving for Uz, Initial residual = 0.043404, Final residual = 2.59815e-08, No Iterations 2
GAMG:  Solving for p, Initial residual = 0.683348, Final residual = 0.0268165, No Iterations 1
GAMG:  Solving for p, Initial residual = 0.208085, Final residual = 0.0199742, No Iterations 1
time step continuity errors : sum local = 5.85071e-06, global = -3.04196e-07, cumulative = 2.47055e-06
GAMG:  Solving for p, Initial residual = 0.115596, Final residual = 0.00623477, No Iterations 2
GAMG:  Solving for p, Initial residual = 0.143527, Final residual = 9.98199e-07, No Iterations 11
time step continuity errors : sum local = 9.36746e-11, global = -5.70488e-12, cumulative = 2.47054e-06
smoothSolver:  Solving for omega, Initial residual = 0.00128859, Final residual = 4.92177e-09, No Iterations 2
smoothSolver:  Solving for k, Initial residual = 0.0131732, Final residual = 2.35784e-08, No Iterations 2
ExecutionTime = 0.8 s  ClockTime = 1 s

Courant Number mean: 0.0147787 max: 0.498467
deltaT = 4.89263e-05
Time = 0.000955304

PIMPLE: iteration 1
smoothSolver:  Solving for Ux, Initial residual = 1.06017e-06, Final residual = 5.21111e-14, No Iterations 1
smoothSolver:  Solving for Uy, Initial residual = 8.75371e-07, Final residual = 8.75371e-07, No Iterations 0
smoothSolver:  Solving for Uz, Initial residual = 8.32429e-07, Final residual = 8.32429e-07, No Iterations 0
GAMG:  Solving for p, Initial residual = 0.999985, Final residual = 0.0389769, No Iterations 1
GAMG:  Solving for p, Initial residual = 0.0462646, Final residual = 0.00438329, No Iterations 1
time step continuity errors : sum local = 5.53778e-06, global = 2.994e-07, cumulative = 2.76994e-06
GAMG:  Solving for p, Initial residual = 0.99978, Final residual = 0.038969, No Iterations 1
GAMG:  Solving for p, Initial residual = 0.0462597, Final residual = 6.04808e-07, No Iterations 11
time step continuity errors : sum local = 7.6411e-10, global = 4.1373e-11, cumulative = 2.76998e-06
PIMPLE: iteration 2
smoothSolver:  Solving for Ux, Initial residual = 0.056136, Final residual = 3.72445e-08, No Iterations 2
smoothSolver:  Solving for Uy, Initial residual = 0.0448018, Final residual = 2.43798e-08, No Iterations 2
smoothSolver:  Solving for Uz, Initial residual = 0.0426773, Final residual = 2.58317e-08, No Iterations 2
GAMG:  Solving for p, Initial residual = 0.687738, Final residual = 0.0269311, No Iterations 1
GAMG:  Solving for p, Initial residual = 0.211282, Final residual = 0.0200765, No Iterations 1
time step continuity errors : sum local = 5.6487e-06, global = -2.95375e-07, cumulative = 2.47461e-06
GAMG:  Solving for p, Initial residual = 0.115262, Final residual = 0.00624139, No Iterations 2
GAMG:  Solving for p, Initial residual = 0.141313, Final residual = 9.81172e-07, No Iterations 11
time step continuity errors : sum local = 9.02819e-11, global = -5.4985e-12, cumulative = 2.4746e-06
smoothSolver:  Solving for omega, Initial residual = 0.00123592, Final residual = 4.82123e-09, No Iterations 2
smoothSolver:  Solving for k, Initial residual = 0.0122446, Final residual = 2.2258e-08, No Iterations 2
ExecutionTime = 0.84 s  ClockTime = 1 s

Courant Number mean: 0.0148228 max: 0.498497
deltaT = 4.90738e-05
Time = 0.00100438

PIMPLE: iteration 1
smoothSolver:  Solving for Ux, Initial residual = 1.05299e-06, Final residual = 5.14427e-14, No Iterations 1
smoothSolver:  Solving for Uy, Initial residual = 8.68639e-07, Final residual = 8.68639e-07, No Iterations 0
smoothSolver:  Solving for Uz, Initial residual = 8.25748e-07, Final residual = 8.25748e-07, No Iterations 0
GAMG:  Solving for p, Initial residual = 0.999985, Final residual = 0.0388944, No Iterations 1
GAMG:  Solving for p, Initial residual = 0.0462431, Final residual = 0.00433806, No Iterations 1
time step continuity errors : sum local = 5.35782e-06, global = 2.91523e-07, cumulative = 2.76612e-06
GAMG:  Solving for p, Initial residual = 0.99978, Final residual = 0.0388866, No Iterations 1
GAMG:  Solving for p, Initial residual = 0.0462382, Final residual = 5.97483e-07, No Iterations 11
time step continuity errors : sum local = 7.3794e-10, global = 4.001e-11, cumulative = 2.76616e-06
PIMPLE: iteration 2
smoothSolver:  Solving for Ux, Initial residual = 0.0547829, Final residual = 3.67664e-08, No Iterations 2
smoothSolver:  Solving for Uy, Initial residual = 0.0441296, Final residual = 2.41697e-08, No Iterations 2
smoothSolver:  Solving for Uz, Initial residual = 0.0420078, Final residual = 2.57082e-08, No Iterations 2
GAMG:  Solving for p, Initial residual = 0.691824, Final residual = 0.0270374, No Iterations 1
GAMG:  Solving for p, Initial residual = 0.214363, Final residual = 0.0201767, No Iterations 1
time step continuity errors : sum local = 5.46263e-06, global = -2.87279e-07, cumulative = 2.47889e-06
GAMG:  Solving for p, Initial residual = 0.114907, Final residual = 0.00624583, No Iterations 2
GAMG:  Solving for p, Initial residual = 0.139228, Final residual = 9.65122e-07, No Iterations 11
time step continuity errors : sum local = 8.71469e-11, global = -5.30783e-12, cumulative = 2.47888e-06
smoothSolver:  Solving for omega, Initial residual = 0.0011864, Final residual = 4.70564e-09, No Iterations 2
smoothSolver:  Solving for k, Initial residual = 0.0114149, Final residual = 2.10524e-08, No Iterations 2
ExecutionTime = 0.87 s  ClockTime = 1 s

Courant Number mean: 0.0148662 max: 0.498553
deltaT = 4.92162e-05
Time = 0.00105359

PIMPLE: iteration 1
smoothSolver:  Solving for Ux, Initial residual = 1.04572e-06, Final residual = 5.07883e-14, No Iterations 1
smoothSolver:  Solving for Uy, Initial residual = 8.6223e-07, Final residual = 8.6223e-07, No Iterations 0
smoothSolver:  Solving for Uz, Initial residual = 8.19401e-07, Final residual = 8.19401e-07, No Iterations 0
GAMG:  Solving for p, Initial residual = 0.999985, Final residual = 0.0388198, No Iterations 1
GAMG:  Solving for p, Initial residual = 0.0462446, Final residual = 0.00430024, No Iterations 1
time step continuity errors : sum local = 5.19414e-06, global = 2.85876e-07, cumulative = 2.76476e-06
GAMG:  Solving for p, Initial residual = 0.999781, Final residual = 0.038812, No Iterations 1
GAMG:  Solving for p, Initial residual = 0.0462397, Final residual = 5.90944e-07, No Iterations 11
time step continuity errors : sum local = 7.13789e-10, global = 3.87682e-11, cumulative = 2.76479e-06
PIMPLE: iteration 2
smoothSolver:  Solving for Ux, Initial residual = 0.0535364, Final residual = 3.6335e-08, No Iterations 2
smoothSolver:  Solving for Uy, Initial residual = 0.0435109, Final residual = 2.39987e-08, No Iterations 2
smoothSolver:  Solving for Uz, Initial residual = 0.0413927, Final residual = 2.56079e-08, No Iterations 2
GAMG:  Solving for p, Initial residual = 0.695669, Final residual = 0.0271368, No Iterations 1
GAMG:  Solving for p, Initial residual = 0.217355, Final residual = 0.020275, No Iterations 1
time step continuity errors : sum local = 5.29047e-06, global = -2.79762e-07, cumulative = 2.48503e-06
GAMG:  Solving for p, Initial residual = 0.114542, Final residual = 0.00624918, No Iterations 2
GAMG:  Solving for p, Initial residual = 0.137303, Final residual = 9.50266e-07, No Iterations 11
time step continuity errors : sum local = 8.42436e-11, global = -5.13123e-12, cumulative = 2.48503e-06
smoothSolver:  Solving for omega, Initial residual = 0.00113981, Final residual = 4.5851e-09, No Iterations 2
smoothSolver:  Solving for k, Initial residual = 0.0106694, Final residual = 1.99912e-08, No Iterations 2
ExecutionTime = 0.91 s  ClockTime = 1 s

Courant Number mean: 0.0149082 max: 0.498578
deltaT = 4.93566e-05
Time = 0.00110295

PIMPLE: iteration 1
smoothSolver:  Solving for Ux, Initial residual = 1.03845e-06, Final residual = 5.01637e-14, No Iterations 1
smoothSolver:  Solving for Uy, Initial residual = 8.56201e-07, Final residual = 8.56201e-07, No Iterations 0
smoothSolver:  Solving for Uz, Initial residual = 8.13366e-07, Final residual = 8.13366e-07, No Iterations 0
GAMG:  Solving for p, Initial residual = 0.999985, Final residual = 0.038751, No Iterations 1
GAMG:  Solving for p, Initial residual = 0.0462397, Final residual = 0.00426233, No Iterations 1
time step continuity errors : sum local = 5.04003e-06, global = 2.79203e-07, cumulative = 2.76423e-06
GAMG:  Solving for p, Initial residual = 0.999781, Final residual = 0.0387432, No Iterations 1
GAMG:  Solving for p, Initial residual = 0.0462349, Final residual = 5.84571e-07, No Iterations 11
time step continuity errors : sum local = 6.91235e-10, global = 3.75983e-11, cumulative = 2.76427e-06
PIMPLE: iteration 2
smoothSolver:  Solving for Ux, Initial residual = 0.0523866, Final residual = 3.59371e-08, No Iterations 2
smoothSolver:  Solving for Uy, Initial residual = 0.0429395, Final residual = 2.38531e-08, No Iterations 2
smoothSolver:  Solving for Uz, Initial residual = 0.0408228, Final residual = 2.55211e-08, No Iterations 2
GAMG:  Solving for p, Initial residual = 0.699286, Final residual = 0.0272302, No Iterations 1
GAMG:  Solving for p, Initial residual = 0.220241, Final residual = 0.0203733, No Iterations 1
time step continuity errors : sum local = 5.13171e-06, global = -2.72923e-07, cumulative = 2.49134e-06
GAMG:  Solving for p, Initial residual = 0.11417, Final residual = 0.00625091, No Iterations 2
GAMG:  Solving for p, Initial residual = 0.135494, Final residual = 9.3631e-07, No Iterations 11
time step continuity errors : sum local = 8.15501e-11, global = -4.96753e-12, cumulative = 2.49134e-06
smoothSolver:  Solving for omega, Initial residual = 0.00109597, Final residual = 4.47398e-09, No Iterations 2
smoothSolver:  Solving for k, Initial residual = 0.00999808, Final residual = 1.91739e-08, No Iterations 2
ExecutionTime = 0.94 s  ClockTime = 1 s

Courant Number mean: 0.0149495 max: 0.498612
deltaT = 4.94939e-05
Time = 0.00115244

PIMPLE: iteration 1
smoothSolver:  Solving for Ux, Initial residual = 1.03114e-06, Final residual = 4.95431e-14, No Iterations 1
smoothSolver:  Solving for Uy, Initial residual = 8.50431e-07, Final residual = 8.50431e-07, No Iterations 0
smoothSolver:  Solving for Uz, Initial residual = 8.07639e-07, Final residual = 8.07639e-07, No Iterations 0
GAMG:  Solving for p, Initial residual = 0.999985, Final residual = 0.0386897, No Iterations 1
GAMG:  Solving for p, Initial residual = 0.0462411, Final residual = 0.00422761, No Iterations 1
time step continuity errors : sum local = 4.89697e-06, global = 2.7305e-07, cumulative = 2.76439e-06
GAMG:  Solving for p, Initial residual = 0.999781, Final residual = 0.0386819, No Iterations 1
GAMG:  Solving for p, Initial residual = 0.0462363, Final residual = 5.78618e-07, No Iterations 11
time step continuity errors : sum local = 6.70235e-10, global = 3.6511e-11, cumulative = 2.76443e-06
PIMPLE: iteration 2
smoothSolver:  Solving for Ux, Initial residual = 0.0513241, Final residual = 3.55744e-08, No Iterations 2
smoothSolver:  Solving for Uy, Initial residual = 0.0424138, Final residual = 2.37194e-08, No Iterations 2
smoothSolver:  Solving for Uz, Initial residual = 0.0402974, Final residual = 2.5444e-08, No Iterations 2
GAMG:  Solving for p, Initial residual = 0.702678, Final residual = 0.0273179, No Iterations 1
GAMG:  Solving for p, Initial residual = 0.222679, Final residual = 0.0204498, No Iterations 1
time step continuity errors : sum local = 4.98746e-06, global = -2.68211e-07, cumulative = 2.49622e-06
GAMG:  Solving for p, Initial residual = 0.113842, Final residual = 0.00624701, No Iterations 2
GAMG:  Solving for p, Initial residual = 0.133878, Final residual = 9.23765e-07, No Iterations 11
time step continuity errors : sum local = 7.90785e-11, global = -4.82041e-12, cumulative = 2.49621e-06
smoothSolver:  Solving for omega, Initial residual = 0.0010546, Final residual = 4.36844e-09, No Iterations 2
smoothSolver:  Solving for k, Initial residual = 0.00938935, Final residual = 1.83815e-08, No Iterations 2
ExecutionTime = 0.98 s  ClockTime = 1 s

Courant Number mean: 0.0149901 max: 0.498654
deltaT = 4.96276e-05
Time = 0.00120207

PIMPLE: iteration 1
smoothSolver:  Solving for Ux, Initial residual = 1.0238e-06, Final residual = 4.89557e-14, No Iterations 1
smoothSolver:  Solving for Uy, Initial residual = 8.44896e-07, Final residual = 8.44896e-07, No Iterations 0
smoothSolver:  Solving for Uz, Initial residual = 8.02105e-07, Final residual = 8.02105e-07, No Iterations 0
GAMG:  Solving for p, Initial residual = 0.999986, Final residual = 0.0386336, No Iterations 1
GAMG:  Solving for p, Initial residual = 0.0462509, Final residual = 0.00419611, No Iterations 1
time step continuity errors : sum local = 4.76407e-06, global = 2.67362e-07, cumulative = 2.76357e-06
GAMG:  Solving for p, Initial residual = 0.999782, Final residual = 0.0386258, No Iterations 1
GAMG:  Solving for p, Initial residual = 0.0462461, Final residual = 5.73056e-07, No Iterations 11
time step continuity errors : sum local = 6.50626e-10, global = 3.54977e-11, cumulative = 2.76361e-06
PIMPLE: iteration 2
smoothSolver:  Solving for Ux, Initial residual = 0.0503429, Final residual = 3.52498e-08, No Iterations 2
smoothSolver:  Solving for Uy, Initial residual = 0.0419295, Final residual = 2.35893e-08, No Iterations 2
smoothSolver:  Solving for Uz, Initial residual = 0.0398107, Final residual = 2.53802e-08, No Iterations 2
GAMG:  Solving for p, Initial residual = 0.705844, Final residual = 0.0274014, No Iterations 1
GAMG:  Solving for p, Initial residual = 0.225362, Final residual = 0.0205437, No Iterations 1
time step continuity errors : sum local = 4.85015e-06, global = -2.62343e-07, cumulative = 2.50126e-06
GAMG:  Solving for p, Initial residual = 0.113457, Final residual = 0.00624558, No Iterations 2
GAMG:  Solving for p, Initial residual = 0.132293, Final residual = 9.11461e-07, No Iterations 11
time step continuity errors : sum local = 7.67384e-11, global = -4.6782e-12, cumulative = 2.50126e-06
smoothSolver:  Solving for omega, Initial residual = 0.00101551, Final residual = 4.26938e-09, No Iterations 2
smoothSolver:  Solving for k, Initial residual = 0.00883605, Final residual = 1.76615e-08, No Iterations 2
ExecutionTime = 1.01 s  ClockTime = 1 s

Courant Number mean: 0.0150295 max: 0.498695
deltaT = 4.97574e-05
Time = 0.00125183

PIMPLE: iteration 1
smoothSolver:  Solving for Ux, Initial residual = 1.01641e-06, Final residual = 4.83893e-14, No Iterations 1
smoothSolver:  Solving for Uy, Initial residual = 8.39577e-07, Final residual = 8.39577e-07, No Iterations 0
smoothSolver:  Solving for Uz, Initial residual = 7.96744e-07, Final residual = 7.96744e-07, No Iterations 0
GAMG:  Solving for p, Initial residual = 0.999986, Final residual = 0.0385803, No Iterations 1
GAMG:  Solving for p, Initial residual = 0.0462665, Final residual = 0.00416703, No Iterations 1
time step continuity errors : sum local = 4.63969e-06, global = 2.62101e-07, cumulative = 2.76336e-06
GAMG:  Solving for p, Initial residual = 0.999782, Final residual = 0.0385726, No Iterations 1
GAMG:  Solving for p, Initial residual = 0.0462616, Final residual = 5.67854e-07, No Iterations 11
time step continuity errors : sum local = 6.32267e-10, global = 3.45511e-11, cumulative = 2.7634e-06
PIMPLE: iteration 2
smoothSolver:  Solving for Ux, Initial residual = 0.0494325, Final residual = 3.49648e-08, No Iterations 2
smoothSolver:  Solving for Uy, Initial residual = 0.0414829, Final residual = 2.34757e-08, No Iterations 2
smoothSolver:  Solving for Uz, Initial residual = 0.0393592, Final residual = 2.53255e-08, No Iterations 2
GAMG:  Solving for p, Initial residual = 0.708838, Final residual = 0.0274824, No Iterations 1
GAMG:  Solving for p, Initial residual = 0.227955, Final residual = 0.0206361, No Iterations 1
time step continuity errors : sum local = 4.72202e-06, global = -2.5691e-07, cumulative = 2.50649e-06
GAMG:  Solving for p, Initial residual = 0.113072, Final residual = 0.00624347, No Iterations 2
GAMG:  Solving for p, Initial residual = 0.13083, Final residual = 9.00053e-07, No Iterations 11
time step continuity errors : sum local = 7.45503e-11, global = -4.54526e-12, cumulative = 2.50648e-06
smoothSolver:  Solving for omega, Initial residual = 0.000978526, Final residual = 4.16907e-09, No Iterations 2
smoothSolver:  Solving for k, Initial residual = 0.00833113, Final residual = 1.69589e-08, No Iterations 2
ExecutionTime = 1.04 s  ClockTime = 1 s

Courant Number mean: 0.0150678 max: 0.498735
deltaT = 4.98836e-05
Time = 0.00130171

PIMPLE: iteration 1
smoothSolver:  Solving for Ux, Initial residual = 1.00899e-06, Final residual = 4.78283e-14, No Iterations 1
smoothSolver:  Solving for Uy, Initial residual = 8.34444e-07, Final residual = 8.34444e-07, No Iterations 0
smoothSolver:  Solving for Uz, Initial residual = 7.91548e-07, Final residual = 7.91548e-07, No Iterations 0
GAMG:  Solving for p, Initial residual = 0.999986, Final residual = 0.0385312, No Iterations 1
GAMG:  Solving for p, Initial residual = 0.0462882, Final residual = 0.00414036, No Iterations 1
time step continuity errors : sum local = 4.52327e-06, global = 2.57232e-07, cumulative = 2.76371e-06
GAMG:  Solving for p, Initial residual = 0.999782, Final residual = 0.0385235, No Iterations 1
GAMG:  Solving for p, Initial residual = 0.0462834, Final residual = 5.62982e-07, No Iterations 11
time step continuity errors : sum local = 6.15051e-10, global = 3.36654e-11, cumulative = 2.76375e-06
PIMPLE: iteration 2
smoothSolver:  Solving for Ux, Initial residual = 0.0485829, Final residual = 3.46978e-08, No Iterations 2
[...]
smoothSolver:  Solving for omega, Initial residual = 1.90381e-05, Final residual = 1.91687e-08, No Iterations 1
smoothSolver:  Solving for k, Initial residual = 0.000166073, Final residual = 1.76576e-07, No Iterations 1
ExecutionTime = 53.3 s  ClockTime = 53 s

Courant Number mean: 0.0200892 max: 0.499974
deltaT = 6.66726e-05
Time = 0.0996854

PIMPLE: iteration 1
smoothSolver:  Solving for Ux, Initial residual = 8.58861e-09, Final residual = 8.58861e-09, No Iterations 0
smoothSolver:  Solving for Uy, Initial residual = 3.06742e-08, Final residual = 3.06742e-08, No Iterations 0
smoothSolver:  Solving for Uz, Initial residual = 2.30575e-08, Final residual = 2.30575e-08, No Iterations 0
GAMG:  Solving for p, Initial residual = 0.999979, Final residual = 0.0446905, No Iterations 1
GAMG:  Solving for p, Initial residual = 0.0537878, Final residual = 0.0019775, No Iterations 2
time step continuity errors : sum local = 2.1261e-07, global = -8.46202e-09, cumulative = 3.20481e-06
GAMG:  Solving for p, Initial residual = 0.999777, Final residual = 0.0446815, No Iterations 1
GAMG:  Solving for p, Initial residual = 0.0537824, Final residual = 7.33299e-07, No Iterations 11
time step continuity errors : sum local = 7.88408e-11, global = -4.43146e-12, cumulative = 3.20481e-06
PIMPLE: iteration 2
smoothSolver:  Solving for Ux, Initial residual = 0.00159306, Final residual = 8.82788e-09, No Iterations 2
smoothSolver:  Solving for Uy, Initial residual = 0.0101736, Final residual = 4.72703e-08, No Iterations 2
smoothSolver:  Solving for Uz, Initial residual = 0.00697286, Final residual = 3.82874e-08, No Iterations 2
GAMG:  Solving for p, Initial residual = 0.724413, Final residual = 0.0327073, No Iterations 1
GAMG:  Solving for p, Initial residual = 0.272865, Final residual = 0.0102121, No Iterations 2
time step continuity errors : sum local = 2.17113e-07, global = 8.86451e-09, cumulative = 3.21367e-06
GAMG:  Solving for p, Initial residual = 0.115716, Final residual = 0.00861662, No Iterations 1
GAMG:  Solving for p, Initial residual = 0.0238396, Final residual = 6.82579e-07, No Iterations 11
time step continuity errors : sum local = 9.41031e-12, global = 5.27481e-13, cumulative = 3.21367e-06
smoothSolver:  Solving for omega, Initial residual = 1.90263e-05, Final residual = 1.91562e-08, No Iterations 1
smoothSolver:  Solving for k, Initial residual = 0.000165993, Final residual = 1.7647e-07, No Iterations 1
ExecutionTime = 53.33 s  ClockTime = 53 s

Courant Number mean: 0.0200902 max: 0.499974
deltaT = 6.6676e-05
Time = 0.0997521

PIMPLE: iteration 1
smoothSolver:  Solving for Ux, Initial residual = 8.58513e-09, Final residual = 8.58513e-09, No Iterations 0
smoothSolver:  Solving for Uy, Initial residual = 3.06587e-08, Final residual = 3.06587e-08, No Iterations 0
smoothSolver:  Solving for Uz, Initial residual = 2.30491e-08, Final residual = 2.30491e-08, No Iterations 0
GAMG:  Solving for p, Initial residual = 0.999979, Final residual = 0.0446903, No Iterations 1
GAMG:  Solving for p, Initial residual = 0.0537884, Final residual = 0.00197747, No Iterations 2
time step continuity errors : sum local = 2.12628e-07, global = -8.46303e-09, cumulative = 3.20521e-06
GAMG:  Solving for p, Initial residual = 0.999777, Final residual = 0.0446813, No Iterations 1
GAMG:  Solving for p, Initial residual = 0.0537829, Final residual = 7.33256e-07, No Iterations 11
time step continuity errors : sum local = 7.88441e-11, global = -4.4317e-12, cumulative = 3.2052e-06
PIMPLE: iteration 2
smoothSolver:  Solving for Ux, Initial residual = 0.0015929, Final residual = 8.82595e-09, No Iterations 2
smoothSolver:  Solving for Uy, Initial residual = 0.0101727, Final residual = 4.72621e-08, No Iterations 2
smoothSolver:  Solving for Uz, Initial residual = 0.00697286, Final residual = 3.82822e-08, No Iterations 2
GAMG:  Solving for p, Initial residual = 0.724408, Final residual = 0.0327068, No Iterations 1
GAMG:  Solving for p, Initial residual = 0.272862, Final residual = 0.0102118, No Iterations 2
time step continuity errors : sum local = 2.17131e-07, global = 8.86565e-09, cumulative = 3.21407e-06
GAMG:  Solving for p, Initial residual = 0.11572, Final residual = 0.00861663, No Iterations 1
GAMG:  Solving for p, Initial residual = 0.0238399, Final residual = 6.82575e-07, No Iterations 11
time step continuity errors : sum local = 9.41104e-12, global = 5.27522e-13, cumulative = 3.21407e-06
smoothSolver:  Solving for omega, Initial residual = 1.90145e-05, Final residual = 1.91438e-08, No Iterations 1
smoothSolver:  Solving for k, Initial residual = 0.000165913, Final residual = 1.76363e-07, No Iterations 1
ExecutionTime = 53.36 s  ClockTime = 53 s

Courant Number mean: 0.0200912 max: 0.499974
deltaT = 6.66794e-05
Time = 0.0998188

PIMPLE: iteration 1
smoothSolver:  Solving for Ux, Initial residual = 8.58175e-09, Final residual = 8.58175e-09, No Iterations 0
smoothSolver:  Solving for Uy, Initial residual = 3.0644e-08, Final residual = 3.0644e-08, No Iterations 0
smoothSolver:  Solving for Uz, Initial residual = 2.30412e-08, Final residual = 2.30412e-08, No Iterations 0
GAMG:  Solving for p, Initial residual = 0.999979, Final residual = 0.04469, No Iterations 1
GAMG:  Solving for p, Initial residual = 0.0537889, Final residual = 0.00197744, No Iterations 2
time step continuity errors : sum local = 2.12647e-07, global = -8.46405e-09, cumulative = 3.20561e-06
GAMG:  Solving for p, Initial residual = 0.999777, Final residual = 0.044681, No Iterations 1
GAMG:  Solving for p, Initial residual = 0.0537835, Final residual = 7.33213e-07, No Iterations 11
time step continuity errors : sum local = 7.88474e-11, global = -4.43194e-12, cumulative = 3.2056e-06
PIMPLE: iteration 2
smoothSolver:  Solving for Ux, Initial residual = 0.00159274, Final residual = 8.82402e-09, No Iterations 2
smoothSolver:  Solving for Uy, Initial residual = 0.0101718, Final residual = 4.72538e-08, No Iterations 2
smoothSolver:  Solving for Uz, Initial residual = 0.00697285, Final residual = 3.82769e-08, No Iterations 2
GAMG:  Solving for p, Initial residual = 0.724406, Final residual = 0.0327064, No Iterations 1
GAMG:  Solving for p, Initial residual = 0.272861, Final residual = 0.0102115, No Iterations 2
time step continuity errors : sum local = 2.17151e-07, global = 8.86674e-09, cumulative = 3.21447e-06
GAMG:  Solving for p, Initial residual = 0.115725, Final residual = 0.00861672, No Iterations 1
GAMG:  Solving for p, Initial residual = 0.0238404, Final residual = 6.82582e-07, No Iterations 11
time step continuity errors : sum local = 9.41184e-12, global = 5.27566e-13, cumulative = 3.21447e-06
smoothSolver:  Solving for omega, Initial residual = 1.90028e-05, Final residual = 1.91313e-08, No Iterations 1
smoothSolver:  Solving for k, Initial residual = 0.000165833, Final residual = 1.76256e-07, No Iterations 1
ExecutionTime = 53.4 s  ClockTime = 53 s

Courant Number mean: 0.0200922 max: 0.499975
deltaT = 6.66828e-05
Time = 0.0998854

PIMPLE: iteration 1
smoothSolver:  Solving for Ux, Initial residual = 8.57851e-09, Final residual = 8.57851e-09, No Iterations 0
smoothSolver:  Solving for Uy, Initial residual = 3.06318e-08, Final residual = 3.06318e-08, No Iterations 0
smoothSolver:  Solving for Uz, Initial residual = 2.3034e-08, Final residual = 2.3034e-08, No Iterations 0
GAMG:  Solving for p, Initial residual = 0.999979, Final residual = 0.0446896, No Iterations 1
GAMG:  Solving for p, Initial residual = 0.0537894, Final residual = 0.00197742, No Iterations 2
time step continuity errors : sum local = 2.12666e-07, global = -8.46523e-09, cumulative = 3.206e-06
GAMG:  Solving for p, Initial residual = 0.999777, Final residual = 0.0446806, No Iterations 1
GAMG:  Solving for p, Initial residual = 0.053784, Final residual = 7.33178e-07, No Iterations 11
time step continuity errors : sum local = 7.88516e-11, global = -4.43222e-12, cumulative = 3.206e-06
PIMPLE: iteration 2
smoothSolver:  Solving for Ux, Initial residual = 0.00159259, Final residual = 8.82209e-09, No Iterations 2
smoothSolver:  Solving for Uy, Initial residual = 0.0101709, Final residual = 4.72456e-08, No Iterations 2
smoothSolver:  Solving for Uz, Initial residual = 0.00697285, Final residual = 3.82716e-08, No Iterations 2
GAMG:  Solving for p, Initial residual = 0.724399, Final residual = 0.0327059, No Iterations 1
GAMG:  Solving for p, Initial residual = 0.272856, Final residual = 0.0102111, No Iterations 2
time step continuity errors : sum local = 2.17169e-07, global = 8.86797e-09, cumulative = 3.21487e-06
GAMG:  Solving for p, Initial residual = 0.115727, Final residual = 0.00861665, No Iterations 1
GAMG:  Solving for p, Initial residual = 0.0238404, Final residual = 6.8257e-07, No Iterations 11
time step continuity errors : sum local = 9.41257e-12, global = 5.27607e-13, cumulative = 3.21487e-06
smoothSolver:  Solving for omega, Initial residual = 1.89911e-05, Final residual = 1.91192e-08, No Iterations 1
smoothSolver:  Solving for k, Initial residual = 0.000165751, Final residual = 1.76149e-07, No Iterations 1
ExecutionTime = 53.43 s  ClockTime = 53 s

Courant Number mean: 0.0200932 max: 0.499975
deltaT = 6.66862e-05
Time = 0.0999521

PIMPLE: iteration 1
smoothSolver:  Solving for Ux, Initial residual = 8.57554e-09, Final residual = 8.57554e-09, No Iterations 0
smoothSolver:  Solving for Uy, Initial residual = 3.06176e-08, Final residual = 3.06176e-08, No Iterations 0
smoothSolver:  Solving for Uz, Initial residual = 2.30252e-08, Final residual = 2.30252e-08, No Iterations 0
GAMG:  Solving for p, Initial residual = 0.999979, Final residual = 0.0446894, No Iterations 1
GAMG:  Solving for p, Initial residual = 0.0537899, Final residual = 0.0019774, No Iterations 2
time step continuity errors : sum local = 2.12686e-07, global = -8.46639e-09, cumulative = 3.2064e-06
GAMG:  Solving for p, Initial residual = 0.999777, Final residual = 0.0446804, No Iterations 1
GAMG:  Solving for p, Initial residual = 0.0537844, Final residual = 7.33142e-07, No Iterations 11
time step continuity errors : sum local = 7.88556e-11, global = -4.4325e-12, cumulative = 3.2064e-06
PIMPLE: iteration 2
smoothSolver:  Solving for Ux, Initial residual = 0.00159243, Final residual = 8.82016e-09, No Iterations 2
smoothSolver:  Solving for Uy, Initial residual = 0.01017, Final residual = 4.72373e-08, No Iterations 2
smoothSolver:  Solving for Uz, Initial residual = 0.00697286, Final residual = 3.82665e-08, No Iterations 2
GAMG:  Solving for p, Initial residual = 0.72439, Final residual = 0.0327053, No Iterations 1
GAMG:  Solving for p, Initial residual = 0.272849, Final residual = 0.0102107, No Iterations 2
time step continuity errors : sum local = 2.17189e-07, global = 8.86928e-09, cumulative = 3.21527e-06
GAMG:  Solving for p, Initial residual = 0.115729, Final residual = 0.00861652, No Iterations 1
GAMG:  Solving for p, Initial residual = 0.0238403, Final residual = 6.82556e-07, No Iterations 11
time step continuity errors : sum local = 9.41335e-12, global = 5.27651e-13, cumulative = 3.21527e-06
smoothSolver:  Solving for omega, Initial residual = 1.89793e-05, Final residual = 1.91071e-08, No Iterations 1
smoothSolver:  Solving for k, Initial residual = 0.00016567, Final residual = 1.76041e-07, No Iterations 1
ExecutionTime = 53.46 s  ClockTime = 53 s

Courant Number mean: 0.0200941 max: 0.499975
deltaT = 6.66896e-05
Time = 0.100019

PIMPLE: iteration 1
smoothSolver:  Solving for Ux, Initial residual = 8.57278e-09, Final residual = 8.57278e-09, No Iterations 0
smoothSolver:  Solving for Uy, Initial residual = 3.06047e-08, Final residual = 3.06047e-08, No Iterations 0
smoothSolver:  Solving for Uz, Initial residual = 2.30159e-08, Final residual = 2.30159e-08, No Iterations 0
GAMG:  Solving for p, Initial residual = 0.999979, Final residual = 0.0446892, No Iterations 1
GAMG:  Solving for p, Initial residual = 0.0537904, Final residual = 0.00197738, No Iterations 2
time step continuity errors : sum local = 2.12705e-07, global = -8.46758e-09, cumulative = 3.2068e-06
GAMG:  Solving for p, Initial residual = 0.999777, Final residual = 0.0446802, No Iterations 1
GAMG:  Solving for p, Initial residual = 0.053785, Final residual = 7.33102e-07, No Iterations 11
time step continuity errors : sum local = 7.88594e-11, global = -4.43276e-12, cumulative = 3.2068e-06
PIMPLE: iteration 2
smoothSolver:  Solving for Ux, Initial residual = 0.00159228, Final residual = 8.81822e-09, No Iterations 2
smoothSolver:  Solving for Uy, Initial residual = 0.0101691, Final residual = 4.7229e-08, No Iterations 2
smoothSolver:  Solving for Uz, Initial residual = 0.00697288, Final residual = 3.82613e-08, No Iterations 2
GAMG:  Solving for p, Initial residual = 0.724381, Final residual = 0.0327048, No Iterations 1
GAMG:  Solving for p, Initial residual = 0.272842, Final residual = 0.0102103, No Iterations 2
time step continuity errors : sum local = 2.17208e-07, global = 8.87073e-09, cumulative = 3.21567e-06
GAMG:  Solving for p, Initial residual = 0.11573, Final residual = 0.00861637, No Iterations 1
GAMG:  Solving for p, Initial residual = 0.0238402, Final residual = 6.82543e-07, No Iterations 11
time step continuity errors : sum local = 9.4141e-12, global = 5.27693e-13, cumulative = 3.21567e-06
smoothSolver:  Solving for omega, Initial residual = 1.89673e-05, Final residual = 1.90946e-08, No Iterations 1
smoothSolver:  Solving for k, Initial residual = 0.000165586, Final residual = 1.7593e-07, No Iterations 1
ExecutionTime = 53.49 s  ClockTime = 53 s

End

Finalising parallel run
[SOLVER] completed (exit code: 0)
[SOLVER] Reconstructing parallel results...
[RECONSTRUCT] Running: reconstructPar
/*---------------------------------------------------------------------------*\
| =========                 |                                                 |
| \\      /  F ield         | OpenFOAM: The Open Source CFD Toolbox           |
|  \\    /   O peration     | Version:  2506                                  |
|   \\  /    A nd           | Website:  www.openfoam.com                      |
|    \\/     M anipulation  |                                                 |
\*---------------------------------------------------------------------------*/
Build  : _615aae61-20250627 OPENFOAM=2506 version=2506
Arch   : "LSB;label=32;scalar=64"
Exec   : reconstructPar
Date   : Jan 24 2026
Time   : 00:46:26
Host   : Vortex-Eclipse
PID    : 234269
I/O    : uncollated
Case   : /home/reen/openfoam/Tutorials/Rotating_Setup_Case/OpenFOAM_GUI/WindTunnelGUI/runs/Run_1_20260124_004526/windTunnelCase
nProcs : 1
trapFpe: Floating point exception trapping enabled (FOAM_SIGFPE).
fileModificationChecking : Monitoring run-time modified files using timeStampMaster (fileModificationSkew 5, maxFileModificationPolls 20)
allowSystemOperations : Allowing user-supplied system call operations

// * * * * * * * * * * * * * * * * * * * * * * * * * * * * * * * * * * * * * //
Create time



Reconstructing fields
region=region0

Time = 0.00481736

Reconstructing FV fields

    Reconstructing volScalarFields

        k
        nut
        omega
        p

    Reconstructing volVectorFields

        U

    Reconstructing surfaceScalarFields

        phi

Reconstructing point fields

No point fields

No lagrangian fields

No FA fields

Time = 0.0100387

Reconstructing FV fields

    Reconstructing volScalarFields

        k
        nut
        omega
        p

    Reconstructing volVectorFields

        U

    Reconstructing surfaceScalarFields

        phi

Reconstructing point fields

No point fields

No lagrangian fields

No FA fields

Time = 0.015359

Reconstructing FV fields

    Reconstructing volScalarFields

        k
        nut
        omega
        p

    Reconstructing volVectorFields

        U

    Reconstructing surfaceScalarFields

        phi

Reconstructing point fields

No point fields

No lagrangian fields

No FA fields

Time = 0.0208034

Reconstructing FV fields

    Reconstructing volScalarFields

        k
        nut
        omega
        p

    Reconstructing volVectorFields

        U

    Reconstructing surfaceScalarFields

        phi

Reconstructing point fields

No point fields

No lagrangian fields

No FA fields

Time = 0.026388

Reconstructing FV fields

    Reconstructing volScalarFields

        k
        nut
        omega
        p

    Reconstructing volVectorFields

        U

    Reconstructing surfaceScalarFields

        phi

Reconstructing point fields

No point fields

No lagrangian fields

No FA fields

Time = 0.0321496

Reconstructing FV fields

    Reconstructing volScalarFields

        k
        nut
        omega
        p

    Reconstructing volVectorFields

        U

    Reconstructing surfaceScalarFields

        phi

Reconstructing point fields

No point fields

No lagrangian fields

No FA fields

Time = 0.038098

Reconstructing FV fields

    Reconstructing volScalarFields

        k
        nut
        omega
        p

    Reconstructing volVectorFields

        U

    Reconstructing surfaceScalarFields

        phi

Reconstructing point fields

No point fields

No lagrangian fields

No FA fields

Time = 0.0441269

Reconstructing FV fields

    Reconstructing volScalarFields

        k
        nut
        omega
        p

    Reconstructing volVectorFields

        U

    Reconstructing surfaceScalarFields

        phi

Reconstructing point fields

No point fields

No lagrangian fields

No FA fields

Time = 0.0502253

Reconstructing FV fields

    Reconstructing volScalarFields

        k
        nut
        omega
        p

    Reconstructing volVectorFields

        U

    Reconstructing surfaceScalarFields

        phi

Reconstructing point fields

No point fields

No lagrangian fields

No FA fields

Time = 0.0563952

Reconstructing FV fields

    Reconstructing volScalarFields

        k
        nut
        omega
        p

    Reconstructing volVectorFields

        U

    Reconstructing surfaceScalarFields

        phi

Reconstructing point fields

No point fields

No lagrangian fields

No FA fields

Time = 0.0626402

Reconstructing FV fields

    Reconstructing volScalarFields

        k
        nut
        omega
        p

    Reconstructing volVectorFields

        U

    Reconstructing surfaceScalarFields

        phi

Reconstructing point fields

No point fields

No lagrangian fields

No FA fields

Time = 0.0689573

Reconstructing FV fields

    Reconstructing volScalarFields

        k
        nut
        omega
        p

    Reconstructing volVectorFields

        U

    Reconstructing surfaceScalarFields

        phi

Reconstructing point fields

No point fields

No lagrangian fields

No FA fields

Time = 0.0753415

Reconstructing FV fields

    Reconstructing volScalarFields

        k
        nut
        omega
        p

    Reconstructing volVectorFields

        U

    Reconstructing surfaceScalarFields

        phi

Reconstructing point fields

No point fields

No lagrangian fields

No FA fields

Time = 0.0818001

Reconstructing FV fields

    Reconstructing volScalarFields

        k
        nut
        omega
        p

    Reconstructing volVectorFields

        U

    Reconstructing surfaceScalarFields

        phi

Reconstructing point fields

No point fields

No lagrangian fields

No FA fields

Time = 0.0883446

Reconstructing FV fields

    Reconstructing volScalarFields

        k
        nut
        omega
        p

    Reconstructing volVectorFields

        U

    Reconstructing surfaceScalarFields

        phi

Reconstructing point fields

No point fields

No lagrangian fields

No FA fields

Time = 0.0949606

Reconstructing FV fields

    Reconstructing volScalarFields

        k
        nut
        omega
        p

    Reconstructing volVectorFields

        U

    Reconstructing surfaceScalarFields

        phi

Reconstructing point fields

No point fields

No lagrangian fields

No FA fields


End

[RECONSTRUCT] completed (exit code: 0)
