[WORKFLOW] Applying settings...
[SETTINGS] Updated controlDict: solver=pimpleFoam, endTime=0.1
[SETTINGS] Updated transportProperties: nu=1.5e-05
[SETTINGS] Updated turbulenceProperties: model=kOmegaSST
[WORKFLOW] Starting solver...
[SOLVER] Decomposing for parallel run...
[DECOMPOSE] Running: decomposePar -force
/*---------------------------------------------------------------------------*\
| =========                 |                                                 |
| \\      /  F ield         | OpenFOAM: The Open Source CFD Toolbox           |
|  \\    /   O peration     | Version:  2506                                  |
|   \\  /    A nd           | Website:  www.openfoam.com                      |
|    \\/     M anipulation  |                                                 |
\*---------------------------------------------------------------------------*/
Build  : _615aae61-20250627 OPENFOAM=2506 version=2506
Arch   : "LSB;label=32;scalar=64"
Exec   : decomposePar -force
Date   : Jan 24 2026
Time   : 00:15:37
Host   : Vortex-Eclipse
PID    : 226568
I/O    : uncollated
Case   : /home/reen/openfoam/Tutorials/Rotating_Setup_Case/OpenFOAM_GUI/WindTunnelGUI/runs/Run_1_20260124_001534/windTunnelCase
nProcs : 1
trapFpe: Floating point exception trapping enabled (FOAM_SIGFPE).
fileModificationChecking : Monitoring run-time modified files using timeStampMaster (fileModificationSkew 5, maxFileModificationPolls 20)
allowSystemOperations : Allowing user-supplied system call operations

// * * * * * * * * * * * * * * * * * * * * * * * * * * * * * * * * * * * * * //
Create time



Decomposing mesh

Create mesh

Calculating distribution of cells
Decomposition method scotch [12] (region region0)

Finished decomposition in 0.1 s

Calculating original mesh data

Distributing cells to processors

Distributing faces to processors

Distributing points to processors

Constructing processor meshes

Processor 0
    Number of cells = 3930
    Number of points = 1020
    Number of faces shared with processor 2 = 139
    Number of faces shared with processor 10 = 49
    Number of processor patches = 2
    Number of processor faces = 188
    Number of boundary faces = 1092

Processor 1
    Number of cells = 3951
    Number of points = 831
    Number of faces shared with processor 2 = 131
    Number of faces shared with processor 3 = 119
    Number of faces shared with processor 4 = 117
    Number of faces shared with processor 5 = 45
    Number of processor patches = 4
    Number of processor faces = 412
    Number of boundary faces = 162

Processor 2
    Number of cells = 3931
    Number of points = 969
    Number of faces shared with processor 0 = 139
    Number of faces shared with processor 1 = 131
    Number of faces shared with processor 3 = 13
    Number of faces shared with processor 4 = 46
    Number of faces shared with processor 5 = 65
    Number of faces shared with processor 6 = 84
    Number of faces shared with processor 10 = 26
    Number of processor patches = 7
    Number of processor faces = 504
    Number of boundary faces = 586

Processor 3
    Number of cells = 3953
    Number of points = 887
    Number of faces shared with processor 1 = 119
    Number of faces shared with processor 2 = 13
    Number of faces shared with processor 4 = 79
    Number of faces shared with processor 5 = 131
    Number of faces shared with processor 6 = 113
    Number of faces shared with processor 7 = 41
    Number of processor patches = 6
    Number of processor faces = 496
    Number of boundary faces = 278

Processor 4
    Number of cells = 3990
    Number of points = 883
    Number of faces shared with processor 1 = 117
    Number of faces shared with processor 2 = 46
    Number of faces shared with processor 3 = 79
    Number of faces shared with processor 5 = 202
    Number of faces shared with processor 6 = 23
    Number of processor patches = 5
    Number of processor faces = 467
    Number of boundary faces = 275

Processor 5
    Number of cells = 3914
    Number of points = 937
    Number of faces shared with processor 1 = 45
    Number of faces shared with processor 2 = 65
    Number of faces shared with processor 3 = 131
    Number of faces shared with processor 4 = 202
    Number of faces shared with processor 6 = 12
    Number of faces shared with processor 7 = 94
    Number of processor patches = 6
    Number of processor faces = 549
    Number of boundary faces = 429

Processor 6
    Number of cells = 3942
    Number of points = 961
    Number of faces shared with processor 2 = 84
    Number of faces shared with processor 3 = 113
    Number of faces shared with processor 4 = 23
    Number of faces shared with processor 5 = 12
    Number of faces shared with processor 7 = 125
    Number of faces shared with processor 8 = 104
    Number of faces shared with processor 9 = 20
    Number of faces shared with processor 10 = 50
    Number of faces shared with processor 11 = 35
    Number of processor patches = 9
    Number of processor faces = 566
    Number of boundary faces = 494

Processor 7
    Number of cells = 3925
    Number of points = 983
    Number of faces shared with processor 3 = 41
    Number of faces shared with processor 5 = 94
    Number of faces shared with processor 6 = 125
    Number of faces shared with processor 8 = 156
    Number of faces shared with processor 9 = 63
    Number of faces shared with processor 10 = 64
    Number of processor patches = 6
    Number of processor faces = 543
    Number of boundary faces = 597

Processor 8
    Number of cells = 3968
    Number of points = 879
    Number of faces shared with processor 6 = 104
    Number of faces shared with processor 7 = 156
    Number of faces shared with processor 9 = 78
    Number of faces shared with processor 10 = 46
    Number of faces shared with processor 11 = 90
    Number of processor patches = 5
    Number of processor faces = 474
    Number of boundary faces = 268

Processor 9
    Number of cells = 3981
    Number of points = 843
    Number of faces shared with processor 6 = 20
    Number of faces shared with processor 7 = 63
    Number of faces shared with processor 8 = 78
    Number of faces shared with processor 10 = 103
    Number of faces shared with processor 11 = 167
    Number of processor patches = 5
    Number of processor faces = 431
    Number of boundary faces = 161

Processor 10
    Number of cells = 3981
    Number of points = 915
    Number of faces shared with processor 0 = 49
    Number of faces shared with processor 2 = 26
    Number of faces shared with processor 6 = 50
    Number of faces shared with processor 7 = 64
    Number of faces shared with processor 8 = 46
    Number of faces shared with processor 9 = 103
    Number of faces shared with processor 11 = 227
    Number of processor patches = 7
    Number of processor faces = 565
    Number of boundary faces = 281

Processor 11
    Number of cells = 3959
    Number of points = 891
    Number of faces shared with processor 6 = 35
    Number of faces shared with processor 8 = 90
    Number of faces shared with processor 9 = 167
    Number of faces shared with processor 10 = 227
    Number of processor patches = 4
    Number of processor faces = 519
    Number of boundary faces = 275

Number of processor faces = 2857
Max number of cells = 3990 (0.95941% above average 3952.08)
Max number of processor patches = 9 (63.6364% above average 5.5)
Max number of faces between processors = 566 (18.8659% above average 476.167)

Time = 0

Processor 0: field transfer
Processor 1: field transfer
Processor 2: field transfer
Processor 3: field transfer
Processor 4: field transfer
Processor 5: field transfer
Processor 6: field transfer
Processor 7: field transfer
Processor 8: field transfer
Processor 9: field transfer
Processor 10: field transfer
Processor 11: field transfer

End

[DECOMPOSE] completed (exit code: 0)
[SOLVER] Running pimpleFoam...
[SOLVER] Running: mpirun -np 12 pimpleFoam -parallel
/*---------------------------------------------------------------------------*\
| =========                 |                                                 |
| \\      /  F ield         | OpenFOAM: The Open Source CFD Toolbox           |
|  \\    /   O peration     | Version:  2506                                  |
|   \\  /    A nd           | Website:  www.openfoam.com                      |
|    \\/     M anipulation  |                                                 |
\*---------------------------------------------------------------------------*/
Build  : _615aae61-20250627 OPENFOAM=2506 version=2506
Arch   : "LSB;label=32;scalar=64"
Exec   : pimpleFoam -parallel
Date   : Jan 24 2026
Time   : 00:15:38
Host   : Vortex-Eclipse
PID    : 228049
I/O    : uncollated
Case   : /home/reen/openfoam/Tutorials/Rotating_Setup_Case/OpenFOAM_GUI/WindTunnelGUI/runs/Run_1_20260124_001534/windTunnelCase
nProcs : 12
Hosts  :
(
    (Vortex-Eclipse 12)
)
Pstream initialized with:
    node communication : off [type=host] (12 ranks, 1 nodes)
    topology controls  : none
    consensus exchange : 0 (tuning: 0)
    exchange algorithm : 0
    commsType          : nonBlocking
    polling iterations : 0
trapFpe: Floating point exception trapping enabled (FOAM_SIGFPE).
fileModificationChecking : Monitoring run-time modified files using timeStampMaster (fileModificationSkew 5, maxFileModificationPolls 20)
allowSystemOperations : Allowing user-supplied system call operations

// * * * * * * * * * * * * * * * * * * * * * * * * * * * * * * * * * * * * * //
Create time

Create mesh for time = 0


PIMPLE: no residual control data found. Calculations will employ 2 corrector loops

Reading field p

Reading field U

Reading/calculating face flux field phi

Selecting incompressible transport model Newtonian
Selecting turbulence model type RAS
Selecting RAS turbulence model kOmegaSST
Selecting patchDistMethod meshWave
RAS
{
    RASModel        kOmegaSST;
    turbulence      on;
    printCoeffs     on;
    alphaK1         0.85;
    alphaK2         1;
    alphaOmega1     0.5;
    alphaOmega2     0.856;
    gamma1          0.555556;
    gamma2          0.44;
    beta1           0.075;
    beta2           0.0828;
    betaStar        0.09;
    a1              0.31;
    b1              1;
    c1              10;
    F3              false;
    decayControl    false;
    kInf            0;
    omegaInf        0;
}

No MRF models present

No finite volume options present
Courant Number mean: 1.30588e-05 max: 0.00273856
Courant Number mean: 1.30588e-05 max: 0.00273856

Starting time loop

Courant Number mean: 1.30588e-05 max: 0.00273856
deltaT = 1.2e-05
Time = 1.2e-05

PIMPLE: iteration 1
smoothSolver:  Solving for Ux, Initial residual = 1, Final residual = 1.96402e-10, No Iterations 1
smoothSolver:  Solving for Uy, Initial residual = 0, Final residual = 0, No Iterations 0
smoothSolver:  Solving for Uz, Initial residual = 0, Final residual = 0, No Iterations 0
GAMG:  Solving for p, Initial residual = 1, Final residual = 0.0589199, No Iterations 6
GAMG:  Solving for p, Initial residual = 0.152059, Final residual = 0.00632191, No Iterations 1
time step continuity errors : sum local = 4.35929e-05, global = -1.37143e-07, cumulative = -1.37143e-07
GAMG:  Solving for p, Initial residual = 0.975729, Final residual = 0.0574675, No Iterations 6
GAMG:  Solving for p, Initial residual = 0.152044, Final residual = 9.62621e-07, No Iterations 10
time step continuity errors : sum local = 6.6378e-09, global = 3.5643e-10, cumulative = -1.36786e-07
PIMPLE: iteration 2
smoothSolver:  Solving for Ux, Initial residual = 0.999982, Final residual = 8.2582e-08, No Iterations 2
smoothSolver:  Solving for Uy, Initial residual = 0.999799, Final residual = 7.28005e-08, No Iterations 2
smoothSolver:  Solving for Uz, Initial residual = 0.999799, Final residual = 1.07632e-07, No Iterations 2
GAMG:  Solving for p, Initial residual = 0.0154474, Final residual = 0.000772079, No Iterations 1
GAMG:  Solving for p, Initial residual = 0.00230192, Final residual = 0.00020773, No Iterations 1
time step continuity errors : sum local = 1.61297e-06, global = -1.31534e-07, cumulative = -2.6832e-07
GAMG:  Solving for p, Initial residual = 0.000806457, Final residual = 4.77376e-05, No Iterations 2
GAMG:  Solving for p, Initial residual = 0.000598983, Final residual = 9.27903e-07, No Iterations 5
time step continuity errors : sum local = 7.2689e-09, global = -4.566e-10, cumulative = -2.68777e-07
smoothSolver:  Solving for omega, Initial residual = 0.00104028, Final residual = 2.22913e-07, No Iterations 1
smoothSolver:  Solving for k, Initial residual = 1, Final residual = 8.81033e-08, No Iterations 2
ExecutionTime = 0.06 s  ClockTime = 0 s

Courant Number mean: 0.00363185 max: 0.176667
deltaT = 1.44e-05
Time = 2.64e-05

PIMPLE: iteration 1
smoothSolver:  Solving for Ux, Initial residual = 0.000387735, Final residual = 5.43159e-12, No Iterations 1
smoothSolver:  Solving for Uy, Initial residual = 5.97364e-05, Final residual = 7.90469e-13, No Iterations 1
smoothSolver:  Solving for Uz, Initial residual = 5.93044e-05, Final residual = 8.63321e-13, No Iterations 1
GAMG:  Solving for p, Initial residual = 0.99879, Final residual = 0.0493278, No Iterations 1
GAMG:  Solving for p, Initial residual = 0.0630859, Final residual = 0.00377911, No Iterations 2
time step continuity errors : sum local = 4.97672e-06, global = 3.59013e-07, cumulative = 9.02358e-08
GAMG:  Solving for p, Initial residual = 0.998689, Final residual = 0.0493231, No Iterations 1
GAMG:  Solving for p, Initial residual = 0.0630784, Final residual = 5.28439e-07, No Iterations 12
time step continuity errors : sum local = 6.95919e-10, global = 4.26559e-11, cumulative = 9.02784e-08
PIMPLE: iteration 2
smoothSolver:  Solving for Ux, Initial residual = 0.861379, Final residual = 5.20675e-08, No Iterations 2
smoothSolver:  Solving for Uy, Initial residual = 0.350278, Final residual = 1.62452e-08, No Iterations 2
smoothSolver:  Solving for Uz, Initial residual = 0.347597, Final residual = 3.08368e-08, No Iterations 2
GAMG:  Solving for p, Initial residual = 0.0411143, Final residual = 0.00326136, No Iterations 3
GAMG:  Solving for p, Initial residual = 0.610567, Final residual = 0.0254848, No Iterations 1
time step continuity errors : sum local = 5.59725e-05, global = 2.57296e-06, cumulative = 2.66324e-06
GAMG:  Solving for p, Initial residual = 0.160946, Final residual = 0.0145243, No Iterations 1
GAMG:  Solving for p, Initial residual = 0.0773313, Final residual = 5.13873e-07, No Iterations 12
time step continuity errors : sum local = 3.45661e-10, global = 2.18743e-11, cumulative = 2.66326e-06
smoothSolver:  Solving for omega, Initial residual = 0.00112827, Final residual = 2.79372e-07, No Iterations 1
smoothSolver:  Solving for k, Initial residual = 0.366801, Final residual = 3.36248e-08, No Iterations 2
ExecutionTime = 0.09 s  ClockTime = 0 s

Courant Number mean: 0.00438622 max: 0.208205
deltaT = 1.728e-05
Time = 4.368e-05

PIMPLE: iteration 1
smoothSolver:  Solving for Ux, Initial residual = 9.50099e-06, Final residual = 1.81816e-13, No Iterations 1
smoothSolver:  Solving for Uy, Initial residual = 7.63128e-06, Final residual = 1.21641e-13, No Iterations 1
smoothSolver:  Solving for Uz, Initial residual = 7.11971e-06, Final residual = 1.13876e-13, No Iterations 1
GAMG:  Solving for p, Initial residual = 0.999863, Final residual = 0.0465905, No Iterations 1
GAMG:  Solving for p, Initial residual = 0.0560512, Final residual = 0.00341811, No Iterations 2
time step continuity errors : sum local = 4.29383e-06, global = 3.07329e-07, cumulative = 2.97059e-06
GAMG:  Solving for p, Initial residual = 0.999638, Final residual = 0.0465803, No Iterations 1
GAMG:  Solving for p, Initial residual = 0.0560446, Final residual = 4.76885e-07, No Iterations 12
time step continuity errors : sum local = 5.99075e-10, global = 3.67397e-11, cumulative = 2.97062e-06
PIMPLE: iteration 2
smoothSolver:  Solving for Ux, Initial residual = 0.301734, Final residual = 2.78432e-08, No Iterations 2
smoothSolver:  Solving for Uy, Initial residual = 0.165923, Final residual = 1.05291e-08, No Iterations 2
smoothSolver:  Solving for Uz, Initial residual = 0.16213, Final residual = 1.28578e-08, No Iterations 2
GAMG:  Solving for p, Initial residual = 0.48277, Final residual = 0.021669, No Iterations 1
GAMG:  Solving for p, Initial residual = 0.128027, Final residual = 0.00695113, No Iterations 2
time step continuity errors : sum local = 5.59904e-06, global = -4.06685e-07, cumulative = 2.56394e-06
GAMG:  Solving for p, Initial residual = 0.17582, Final residual = 0.00927401, No Iterations 1
GAMG:  Solving for p, Initial residual = 0.0255753, Final residual = 5.93378e-07, No Iterations 11
time step continuity errors : sum local = 2.12266e-10, global = -1.29085e-11, cumulative = 2.56393e-06
smoothSolver:  Solving for omega, Initial residual = 0.00128974, Final residual = 3.9301e-07, No Iterations 1
smoothSolver:  Solving for k, Initial residual = 0.265391, Final residual = 3.67116e-08, No Iterations 2
ExecutionTime = 0.13 s  ClockTime = 0 s

Courant Number mean: 0.00526052 max: 0.242074
deltaT = 2.0736e-05
Time = 6.4416e-05

PIMPLE: iteration 1
smoothSolver:  Solving for Ux, Initial residual = 3.86897e-06, Final residual = 8.71534e-14, No Iterations 1
smoothSolver:  Solving for Uy, Initial residual = 2.60587e-06, Final residual = 5.35735e-14, No Iterations 1
smoothSolver:  Solving for Uz, Initial residual = 2.50078e-06, Final residual = 5.01338e-14, No Iterations 1
GAMG:  Solving for p, Initial residual = 0.999941, Final residual = 0.0451129, No Iterations 1
GAMG:  Solving for p, Initial residual = 0.0536999, Final residual = 0.00320274, No Iterations 2
time step continuity errors : sum local = 4.31514e-06, global = 3.11003e-07, cumulative = 2.87493e-06
GAMG:  Solving for p, Initial residual = 0.999713, Final residual = 0.0451028, No Iterations 1
GAMG:  Solving for p, Initial residual = 0.0536936, Final residual = 4.4709e-07, No Iterations 12
time step continuity errors : sum local = 6.02388e-10, global = 3.70116e-11, cumulative = 2.87497e-06
PIMPLE: iteration 2
smoothSolver:  Solving for Ux, Initial residual = 0.225544, Final residual = 3.10112e-08, No Iterations 2
smoothSolver:  Solving for Uy, Initial residual = 0.114154, Final residual = 1.12642e-08, No Iterations 2
smoothSolver:  Solving for Uz, Initial residual = 0.111685, Final residual = 1.39157e-08, No Iterations 2
GAMG:  Solving for p, Initial residual = 0.46964, Final residual = 0.0209718, No Iterations 1
GAMG:  Solving for p, Initial residual = 0.120491, Final residual = 0.00706515, No Iterations 2
time step continuity errors : sum local = 4.78949e-06, global = -3.46385e-07, cumulative = 2.52858e-06
GAMG:  Solving for p, Initial residual = 0.18394, Final residual = 0.00961327, No Iterations 1
GAMG:  Solving for p, Initial residual = 0.0263625, Final residual = 6.11455e-07, No Iterations 11
time step continuity errors : sum local = 1.80428e-10, global = -1.0989e-11, cumulative = 2.52857e-06
smoothSolver:  Solving for omega, Initial residual = 0.00148111, Final residual = 5.56401e-07, No Iterations 1
smoothSolver:  Solving for k, Initial residual = 0.192814, Final residual = 4.12009e-08, No Iterations 2
ExecutionTime = 0.16 s  ClockTime = 1 s

Courant Number mean: 0.00630967 max: 0.281503
deltaT = 2.44191e-05
Time = 8.88351e-05

PIMPLE: iteration 1
smoothSolver:  Solving for Ux, Initial residual = 2.55401e-06, Final residual = 7.03298e-14, No Iterations 1
smoothSolver:  Solving for Uy, Initial residual = 1.7662e-06, Final residual = 4.57136e-14, No Iterations 1
smoothSolver:  Solving for Uz, Initial residual = 1.71892e-06, Final residual = 4.21005e-14, No Iterations 1
GAMG:  Solving for p, Initial residual = 0.999956, Final residual = 0.0439981, No Iterations 1
GAMG:  Solving for p, Initial residual = 0.0520737, Final residual = 0.00303131, No Iterations 2
time step continuity errors : sum local = 4.40513e-06, global = 3.19522e-07, cumulative = 2.84809e-06
GAMG:  Solving for p, Initial residual = 0.999729, Final residual = 0.0439883, No Iterations 1
GAMG:  Solving for p, Initial residual = 0.0520676, Final residual = 4.23385e-07, No Iterations 12
time step continuity errors : sum local = 6.15278e-10, global = 3.78614e-11, cumulative = 2.84813e-06
PIMPLE: iteration 2
smoothSolver:  Solving for Ux, Initial residual = 0.188268, Final residual = 3.69979e-08, No Iterations 2
smoothSolver:  Solving for Uy, Initial residual = 0.0984877, Final residual = 1.4084e-08, No Iterations 2
smoothSolver:  Solving for Uz, Initial residual = 0.0960381, Final residual = 1.70603e-08, No Iterations 2
GAMG:  Solving for p, Initial residual = 0.492297, Final residual = 0.0215397, No Iterations 1
GAMG:  Solving for p, Initial residual = 0.126831, Final residual = 0.00727567, No Iterations 2
time step continuity errors : sum local = 4.73317e-06, global = -3.43282e-07, cumulative = 2.50485e-06
GAMG:  Solving for p, Initial residual = 0.194995, Final residual = 0.0101899, No Iterations 1
GAMG:  Solving for p, Initial residual = 0.0280749, Final residual = 6.49118e-07, No Iterations 11
time step continuity errors : sum local = 1.76418e-10, global = -1.07537e-11, cumulative = 2.50484e-06
smoothSolver:  Solving for omega, Initial residual = 0.00166932, Final residual = 7.58289e-07, No Iterations 1
smoothSolver:  Solving for k, Initial residual = 0.1494, Final residual = 4.76085e-08, No Iterations 2
ExecutionTime = 0.19 s  ClockTime = 1 s

Courant Number mean: 0.00742739 max: 0.321586
deltaT = 2.82157e-05
Time = 0.000117051

PIMPLE: iteration 1
smoothSolver:  Solving for Ux, Initial residual = 1.89869e-06, Final residual = 6.27588e-14, No Iterations 1
smoothSolver:  Solving for Uy, Initial residual = 1.4377e-06, Final residual = 4.50518e-14, No Iterations 1
smoothSolver:  Solving for Uz, Initial residual = 1.39847e-06, Final residual = 4.13188e-14, No Iterations 1
GAMG:  Solving for p, Initial residual = 0.999964, Final residual = 0.0431316, No Iterations 1
GAMG:  Solving for p, Initial residual = 0.050859, Final residual = 0.00288921, No Iterations 2
time step continuity errors : sum local = 4.50265e-06, global = 3.28302e-07, cumulative = 2.83314e-06
GAMG:  Solving for p, Initial residual = 0.999738, Final residual = 0.043122, No Iterations 1
GAMG:  Solving for p, Initial residual = 0.050853, Final residual = 9.85243e-07, No Iterations 11
time step continuity errors : sum local = 1.53547e-09, global = 8.77454e-11, cumulative = 2.83323e-06
PIMPLE: iteration 2
smoothSolver:  Solving for Ux, Initial residual = 0.162413, Final residual = 4.33068e-08, No Iterations 2
smoothSolver:  Solving for Uy, Initial residual = 0.0886382, Final residual = 1.75733e-08, No Iterations 2
smoothSolver:  Solving for Uz, Initial residual = 0.08621, Final residual = 2.07194e-08, No Iterations 2
GAMG:  Solving for p, Initial residual = 0.513958, Final residual = 0.0220996, No Iterations 1
GAMG:  Solving for p, Initial residual = 0.133019, Final residual = 0.00745626, No Iterations 2
time step continuity errors : sum local = 4.76353e-06, global = -3.46724e-07, cumulative = 2.4865e-06
GAMG:  Solving for p, Initial residual = 0.204822, Final residual = 0.0107065, No Iterations 1
GAMG:  Solving for p, Initial residual = 0.0296376, Final residual = 6.82476e-07, No Iterations 11
time step continuity errors : sum local = 1.75881e-10, global = -1.07323e-11, cumulative = 2.48649e-06
smoothSolver:  Solving for omega, Initial residual = 0.00184333, Final residual = 9.92724e-07, No Iterations 1
smoothSolver:  Solving for k, Initial residual = 0.120917, Final residual = 5.54606e-08, No Iterations 2
ExecutionTime = 0.22 s  ClockTime = 1 s

Courant Number mean: 0.00857907 max: 0.364905
deltaT = 3.20819e-05
Time = 0.000149133

PIMPLE: iteration 1
smoothSolver:  Solving for Ux, Initial residual = 1.54422e-06, Final residual = 5.98465e-14, No Iterations 1
smoothSolver:  Solving for Uy, Initial residual = 1.27021e-06, Final residual = 4.68671e-14, No Iterations 1
smoothSolver:  Solving for Uz, Initial residual = 1.23181e-06, Final residual = 4.30739e-14, No Iterations 1
GAMG:  Solving for p, Initial residual = 0.999969, Final residual = 0.0424412, No Iterations 1
GAMG:  Solving for p, Initial residual = 0.049922, Final residual = 0.00276838, No Iterations 2
time step continuity errors : sum local = 4.59276e-06, global = 3.36289e-07, cumulative = 2.82278e-06
GAMG:  Solving for p, Initial residual = 0.999743, Final residual = 0.0424318, No Iterations 1
GAMG:  Solving for p, Initial residual = 0.0499163, Final residual = 9.44371e-07, No Iterations 11
time step continuity errors : sum local = 1.56674e-09, global = 8.95019e-11, cumulative = 2.82287e-06
PIMPLE: iteration 2
smoothSolver:  Solving for Ux, Initial residual = 0.143287, Final residual = 4.97639e-08, No Iterations 2
smoothSolver:  Solving for Uy, Initial residual = 0.08155, Final residual = 2.16216e-08, No Iterations 2
smoothSolver:  Solving for Uz, Initial residual = 0.0791174, Final residual = 2.48154e-08, No Iterations 2
GAMG:  Solving for p, Initial residual = 0.533268, Final residual = 0.0225945, No Iterations 1
GAMG:  Solving for p, Initial residual = 0.138959, Final residual = 0.007614, No Iterations 2
time step continuity errors : sum local = 4.81376e-06, global = -3.51558e-07, cumulative = 2.47131e-06
GAMG:  Solving for p, Initial residual = 0.213545, Final residual = 0.0111674, No Iterations 1
GAMG:  Solving for p, Initial residual = 0.031054, Final residual = 7.12383e-07, No Iterations 11
time step continuity errors : sum local = 1.76174e-10, global = -1.076e-11, cumulative = 2.4713e-06
smoothSolver:  Solving for omega, Initial residual = 0.00199836, Final residual = 2.1834e-09, No Iterations 2
smoothSolver:  Solving for k, Initial residual = 0.100744, Final residual = 6.4698e-08, No Iterations 2
ExecutionTime = 0.25 s  ClockTime = 1 s

Courant Number mean: 0.00975129 max: 0.407657
deltaT = 3.60168e-05
Time = 0.00018515

PIMPLE: iteration 1
smoothSolver:  Solving for Ux, Initial residual = 1.35971e-06, Final residual = 6.0403e-14, No Iterations 1
smoothSolver:  Solving for Uy, Initial residual = 1.18368e-06, Final residual = 5.02931e-14, No Iterations 1
smoothSolver:  Solving for Uz, Initial residual = 1.14422e-06, Final residual = 4.64381e-14, No Iterations 1
GAMG:  Solving for p, Initial residual = 0.999973, Final residual = 0.0418793, No Iterations 1
GAMG:  Solving for p, Initial residual = 0.0491854, Final residual = 0.00266423, No Iterations 2
time step continuity errors : sum local = 4.67392e-06, global = 3.43392e-07, cumulative = 2.8147e-06
GAMG:  Solving for p, Initial residual = 0.999748, Final residual = 0.04187, No Iterations 1
GAMG:  Solving for p, Initial residual = 0.0491798, Final residual = 9.09068e-07, No Iterations 11
time step continuity errors : sum local = 1.59483e-09, global = 9.10873e-11, cumulative = 2.81479e-06
PIMPLE: iteration 2
smoothSolver:  Solving for Ux, Initial residual = 0.128558, Final residual = 5.6326e-08, No Iterations 2
smoothSolver:  Solving for Uy, Initial residual = 0.0761437, Final residual = 2.62163e-08, No Iterations 2
smoothSolver:  Solving for Uz, Initial residual = 0.0737056, Final residual = 2.93283e-08, No Iterations 2
GAMG:  Solving for p, Initial residual = 0.550525, Final residual = 0.0230463, No Iterations 1
GAMG:  Solving for p, Initial residual = 0.144748, Final residual = 0.00775607, No Iterations 2
time step continuity errors : sum local = 4.8702e-06, global = -3.56698e-07, cumulative = 2.45809e-06
GAMG:  Solving for p, Initial residual = 0.221346, Final residual = 0.0115831, No Iterations 1
GAMG:  Solving for p, Initial residual = 0.0323661, Final residual = 7.39758e-07, No Iterations 11
time step continuity errors : sum local = 1.76758e-10, global = -1.08042e-11, cumulative = 2.45808e-06
smoothSolver:  Solving for omega, Initial residual = 0.00213342, Final residual = 3.23334e-09, No Iterations 2
smoothSolver:  Solving for k, Initial residual = 0.0857333, Final residual = 7.50314e-08, No Iterations 2
ExecutionTime = 0.29 s  ClockTime = 1 s

Courant Number mean: 0.0109438 max: 0.449278
deltaT = 4.00251e-05
Time = 0.000225175

PIMPLE: iteration 1
smoothSolver:  Solving for Ux, Initial residual = 1.27846e-06, Final residual = 6.34143e-14, No Iterations 1
smoothSolver:  Solving for Uy, Initial residual = 1.14502e-06, Final residual = 5.49276e-14, No Iterations 1
smoothSolver:  Solving for Uz, Initial residual = 1.10307e-06, Final residual = 5.09641e-14, No Iterations 1
GAMG:  Solving for p, Initial residual = 0.999975, Final residual = 0.0414084, No Iterations 1
GAMG:  Solving for p, Initial residual = 0.0485989, Final residual = 0.00257365, No Iterations 2
time step continuity errors : sum local = 4.74704e-06, global = 3.49731e-07, cumulative = 2.80781e-06
GAMG:  Solving for p, Initial residual = 0.999752, Final residual = 0.0413992, No Iterations 1
GAMG:  Solving for p, Initial residual = 0.0485933, Final residual = 8.78337e-07, No Iterations 11
time step continuity errors : sum local = 1.6201e-09, global = 9.25196e-11, cumulative = 2.8079e-06
PIMPLE: iteration 2
smoothSolver:  Solving for Ux, Initial residual = 0.116904, Final residual = 6.30124e-08, No Iterations 2
smoothSolver:  Solving for Uy, Initial residual = 0.0718564, Final residual = 3.1424e-08, No Iterations 2
smoothSolver:  Solving for Uz, Initial residual = 0.069421, Final residual = 3.42537e-08, No Iterations 2
GAMG:  Solving for p, Initial residual = 0.566033, Final residual = 0.0234558, No Iterations 1
GAMG:  Solving for p, Initial residual = 0.150351, Final residual = 0.00788501, No Iterations 2
time step continuity errors : sum local = 4.92685e-06, global = -3.61793e-07, cumulative = 2.44611e-06
GAMG:  Solving for p, Initial residual = 0.228373, Final residual = 0.011961, No Iterations 1
GAMG:  Solving for p, Initial residual = 0.0335835, Final residual = 7.6487e-07, No Iterations 11
time step continuity errors : sum local = 1.77401e-10, global = -1.08511e-11, cumulative = 2.4461e-06
smoothSolver:  Solving for omega, Initial residual = 0.00224842, Final residual = 4.61613e-09, No Iterations 2
smoothSolver:  Solving for k, Initial residual = 0.0741041, Final residual = 8.64084e-08, No Iterations 2
ExecutionTime = 0.32 s  ClockTime = 1 s

Courant Number mean: 0.0121581 max: 0.489849
deltaT = 4.08546e-05
Time = 0.000266029

PIMPLE: iteration 1
smoothSolver:  Solving for Ux, Initial residual = 1.16862e-06, Final residual = 5.89151e-14, No Iterations 1
smoothSolver:  Solving for Uy, Initial residual = 1.05372e-06, Final residual = 5.21422e-14, No Iterations 1
smoothSolver:  Solving for Uz, Initial residual = 1.01255e-06, Final residual = 4.85644e-14, No Iterations 1
GAMG:  Solving for p, Initial residual = 0.999979, Final residual = 0.0410138, No Iterations 1
GAMG:  Solving for p, Initial residual = 0.0481275, Final residual = 0.00249457, No Iterations 2
time step continuity errors : sum local = 4.45824e-06, global = 3.29218e-07, cumulative = 2.77531e-06
GAMG:  Solving for p, Initial residual = 0.999757, Final residual = 0.0410048, No Iterations 1
GAMG:  Solving for p, Initial residual = 0.0481219, Final residual = 8.51378e-07, No Iterations 11
time step continuity errors : sum local = 1.52159e-09, global = 8.69172e-11, cumulative = 2.7754e-06
PIMPLE: iteration 2
smoothSolver:  Solving for Ux, Initial residual = 0.107003, Final residual = 5.78069e-08, No Iterations 2
smoothSolver:  Solving for Uy, Initial residual = 0.0676851, Final residual = 3.05589e-08, No Iterations 2
smoothSolver:  Solving for Uz, Initial residual = 0.0652628, Final residual = 3.26526e-08, No Iterations 2
GAMG:  Solving for p, Initial residual = 0.578794, Final residual = 0.0237769, No Iterations 1
GAMG:  Solving for p, Initial residual = 0.155051, Final residual = 0.00796988, No Iterations 2
time step continuity errors : sum local = 4.58235e-06, global = -3.37165e-07, cumulative = 2.43824e-06
GAMG:  Solving for p, Initial residual = 0.232382, Final residual = 0.0122043, No Iterations 1
GAMG:  Solving for p, Initial residual = 0.034425, Final residual = 7.83765e-07, No Iterations 11
time step continuity errors : sum local = 1.64466e-10, global = -1.0064e-11, cumulative = 2.43823e-06
smoothSolver:  Solving for omega, Initial residual = 0.00217346, Final residual = 4.77009e-09, No Iterations 2
smoothSolver:  Solving for k, Initial residual = 0.0601494, Final residual = 7.56059e-08, No Iterations 2
ExecutionTime = 0.35 s  ClockTime = 1 s

Courant Number mean: 0.0124066 max: 0.490968
deltaT = 4.16061e-05
Time = 0.000307635

PIMPLE: iteration 1
smoothSolver:  Solving for Ux, Initial residual = 1.12988e-06, Final residual = 5.71551e-14, No Iterations 1
smoothSolver:  Solving for Uy, Initial residual = 1.01509e-06, Final residual = 5.10969e-14, No Iterations 1
smoothSolver:  Solving for Uz, Initial residual = 9.74016e-07, Final residual = 9.74016e-07, No Iterations 0
GAMG:  Solving for p, Initial residual = 0.999981, Final residual = 0.04068, No Iterations 1
GAMG:  Solving for p, Initial residual = 0.0477397, Final residual = 0.00242422, No Iterations 2
time step continuity errors : sum local = 4.20396e-06, global = 3.10961e-07, cumulative = 2.74919e-06
GAMG:  Solving for p, Initial residual = 0.99976, Final residual = 0.0406711, No Iterations 1
GAMG:  Solving for p, Initial residual = 0.0477343, Final residual = 8.27317e-07, No Iterations 11
time step continuity errors : sum local = 1.43471e-09, global = 8.19798e-11, cumulative = 2.74927e-06
PIMPLE: iteration 2
smoothSolver:  Solving for Ux, Initial residual = 0.0994524, Final residual = 5.38946e-08, No Iterations 2
smoothSolver:  Solving for Uy, Initial residual = 0.0645786, Final residual = 2.99456e-08, No Iterations 2
smoothSolver:  Solving for Uz, Initial residual = 0.0621669, Final residual = 3.14177e-08, No Iterations 2
GAMG:  Solving for p, Initial residual = 0.590953, Final residual = 0.0240881, No Iterations 1
GAMG:  Solving for p, Initial residual = 0.159858, Final residual = 0.00805662, No Iterations 2
time step continuity errors : sum local = 4.31327e-06, global = -3.17983e-07, cumulative = 2.43129e-06
GAMG:  Solving for p, Initial residual = 0.236683, Final residual = 0.0124664, No Iterations 1
GAMG:  Solving for p, Initial residual = 0.0353648, Final residual = 8.05045e-07, No Iterations 11
time step continuity errors : sum local = 1.54368e-10, global = -9.44904e-12, cumulative = 2.43128e-06
smoothSolver:  Solving for omega, Initial residual = 0.00209823, Final residual = 4.88985e-09, No Iterations 2
smoothSolver:  Solving for k, Initial residual = 0.0502199, Final residual = 6.75956e-08, No Iterations 2
ExecutionTime = 0.38 s  ClockTime = 1 s

Courant Number mean: 0.0126316 max: 0.491315
deltaT = 4.23416e-05
Time = 0.000349977

PIMPLE: iteration 1
smoothSolver:  Solving for Ux, Initial residual = 1.10669e-06, Final residual = 5.60492e-14, No Iterations 1
smoothSolver:  Solving for Uy, Initial residual = 9.87237e-07, Final residual = 9.87237e-07, No Iterations 0
smoothSolver:  Solving for Uz, Initial residual = 9.45895e-07, Final residual = 9.45895e-07, No Iterations 0
GAMG:  Solving for p, Initial residual = 0.999982, Final residual = 0.040388, No Iterations 1
GAMG:  Solving for p, Initial residual = 0.0474224, Final residual = 0.00236131, No Iterations 2
time step continuity errors : sum local = 3.98287e-06, global = 2.94963e-07, cumulative = 2.72624e-06
GAMG:  Solving for p, Initial residual = 0.999761, Final residual = 0.0403792, No Iterations 1
GAMG:  Solving for p, Initial residual = 0.047417, Final residual = 8.05757e-07, No Iterations 11
time step continuity errors : sum local = 1.35911e-09, global = 7.76854e-11, cumulative = 2.72632e-06
PIMPLE: iteration 2
smoothSolver:  Solving for Ux, Initial residual = 0.0931018, Final residual = 5.19427e-08, No Iterations 2
smoothSolver:  Solving for Uy, Initial residual = 0.0619117, Final residual = 2.95328e-08, No Iterations 2
smoothSolver:  Solving for Uz, Initial residual = 0.059518, Final residual = 3.04419e-08, No Iterations 2
GAMG:  Solving for p, Initial residual = 0.601983, Final residual = 0.0243709, No Iterations 1
GAMG:  Solving for p, Initial residual = 0.164494, Final residual = 0.00813559, No Iterations 2
time step continuity errors : sum local = 4.08102e-06, global = -3.0128e-07, cumulative = 2.42504e-06
GAMG:  Solving for p, Initial residual = 0.240366, Final residual = 0.0126974, No Iterations 1
GAMG:  Solving for p, Initial residual = 0.0362186, Final residual = 8.24362e-07, No Iterations 11
time step continuity errors : sum local = 1.45663e-10, global = -8.91874e-12, cumulative = 2.42503e-06
smoothSolver:  Solving for omega, Initial residual = 0.00202537, Final residual = 4.99215e-09, No Iterations 2
smoothSolver:  Solving for k, Initial residual = 0.0428579, Final residual = 6.17194e-08, No Iterations 2
ExecutionTime = 0.41 s  ClockTime = 1 s

Courant Number mean: 0.0128518 max: 0.491646
deltaT = 4.30611e-05
Time = 0.000393038

PIMPLE: iteration 1
smoothSolver:  Solving for Ux, Initial residual = 1.09316e-06, Final residual = 5.53821e-14, No Iterations 1
smoothSolver:  Solving for Uy, Initial residual = 9.66409e-07, Final residual = 9.66409e-07, No Iterations 0
smoothSolver:  Solving for Uz, Initial residual = 9.24807e-07, Final residual = 9.24807e-07, No Iterations 0
GAMG:  Solving for p, Initial residual = 0.999982, Final residual = 0.0401332, No Iterations 1
GAMG:  Solving for p, Initial residual = 0.0471655, Final residual = 0.00230476, No Iterations 2
time step continuity errors : sum local = 3.78864e-06, global = 2.80807e-07, cumulative = 2.70584e-06
GAMG:  Solving for p, Initial residual = 0.999763, Final residual = 0.0401245, No Iterations 1
GAMG:  Solving for p, Initial residual = 0.0471601, Final residual = 7.86351e-07, No Iterations 11
time step continuity errors : sum local = 1.29264e-09, global = 7.3912e-11, cumulative = 2.70591e-06
PIMPLE: iteration 2
smoothSolver:  Solving for Ux, Initial residual = 0.087694, Final residual = 5.24079e-08, No Iterations 2
smoothSolver:  Solving for Uy, Initial residual = 0.0595921, Final residual = 2.91722e-08, No Iterations 2
smoothSolver:  Solving for Uz, Initial residual = 0.057222, Final residual = 2.96371e-08, No Iterations 2
GAMG:  Solving for p, Initial residual = 0.612042, Final residual = 0.0246298, No Iterations 1
GAMG:  Solving for p, Initial residual = 0.168952, Final residual = 0.00820804, No Iterations 2
time step continuity errors : sum local = 3.87774e-06, global = -2.86576e-07, cumulative = 2.41933e-06
GAMG:  Solving for p, Initial residual = 0.243494, Final residual = 0.0129005, No Iterations 1
GAMG:  Solving for p, Initial residual = 0.0369968, Final residual = 8.41901e-07, No Iterations 11
time step continuity errors : sum local = 1.38054e-10, global = -8.45486e-12, cumulative = 2.41932e-06
smoothSolver:  Solving for omega, Initial residual = 0.00195459, Final residual = 5.07836e-09, No Iterations 2
smoothSolver:  Solving for k, Initial residual = 0.0372098, Final residual = 5.71411e-08, No Iterations 2
ExecutionTime = 0.44 s  ClockTime = 1 s

Courant Number mean: 0.0130674 max: 0.491961
deltaT = 4.37648e-05
Time = 0.000436803

PIMPLE: iteration 1
smoothSolver:  Solving for Ux, Initial residual = 1.08567e-06, Final residual = 5.49022e-14, No Iterations 1
smoothSolver:  Solving for Uy, Initial residual = 9.50817e-07, Final residual = 9.50817e-07, No Iterations 0
smoothSolver:  Solving for Uz, Initial residual = 9.08809e-07, Final residual = 9.08809e-07, No Iterations 0
GAMG:  Solving for p, Initial residual = 0.999983, Final residual = 0.0399109, No Iterations 1
GAMG:  Solving for p, Initial residual = 0.0469525, Final residual = 0.00225377, No Iterations 2
time step continuity errors : sum local = 3.61649e-06, global = 2.68183e-07, cumulative = 2.68751e-06
GAMG:  Solving for p, Initial residual = 0.999765, Final residual = 0.0399023, No Iterations 1
GAMG:  Solving for p, Initial residual = 0.0469472, Final residual = 7.68827e-07, No Iterations 11
time step continuity errors : sum local = 1.2337e-09, global = 7.05677e-11, cumulative = 2.68758e-06
PIMPLE: iteration 2
smoothSolver:  Solving for Ux, Initial residual = 0.0830419, Final residual = 5.31294e-08, No Iterations 2
smoothSolver:  Solving for Uy, Initial residual = 0.0575505, Final residual = 2.90203e-08, No Iterations 2
smoothSolver:  Solving for Uz, Initial residual = 0.0552113, Final residual = 2.89939e-08, No Iterations 2
GAMG:  Solving for p, Initial residual = 0.621214, Final residual = 0.0248692, No Iterations 1
GAMG:  Solving for p, Initial residual = 0.17324, Final residual = 0.00827444, No Iterations 2
time step continuity errors : sum local = 3.69812e-06, global = -2.73517e-07, cumulative = 2.41406e-06
GAMG:  Solving for p, Initial residual = 0.246116, Final residual = 0.0130779, No Iterations 1
GAMG:  Solving for p, Initial residual = 0.0377041, Final residual = 8.57796e-07, No Iterations 11
time step continuity errors : sum local = 1.31341e-10, global = -8.04551e-12, cumulative = 2.41405e-06
smoothSolver:  Solving for omega, Initial residual = 0.00188611, Final residual = 5.14818e-09, No Iterations 2
smoothSolver:  Solving for k, Initial residual = 0.0327408, Final residual = 5.32802e-08, No Iterations 2
ExecutionTime = 0.48 s  ClockTime = 1 s

Courant Number mean: 0.0132782 max: 0.492259
deltaT = 4.4453e-05
Time = 0.000481256

PIMPLE: iteration 1
smoothSolver:  Solving for Ux, Initial residual = 1.08189e-06, Final residual = 5.45919e-14, No Iterations 1
smoothSolver:  Solving for Uy, Initial residual = 9.38839e-07, Final residual = 9.38839e-07, No Iterations 0
smoothSolver:  Solving for Uz, Initial residual = 8.96616e-07, Final residual = 8.96616e-07, No Iterations 0
GAMG:  Solving for p, Initial residual = 0.999983, Final residual = 0.0397133, No Iterations 1
GAMG:  Solving for p, Initial residual = 0.0467768, Final residual = 0.00220761, No Iterations 2
time step continuity errors : sum local = 3.46274e-06, global = 2.56853e-07, cumulative = 2.67091e-06
GAMG:  Solving for p, Initial residual = 0.999766, Final residual = 0.0397048, No Iterations 1
GAMG:  Solving for p, Initial residual = 0.0467715, Final residual = 7.52942e-07, No Iterations 11
time step continuity errors : sum local = 1.18104e-09, global = 6.75814e-11, cumulative = 2.67097e-06
PIMPLE: iteration 2
smoothSolver:  Solving for Ux, Initial residual = 0.0790052, Final residual = 5.39022e-08, No Iterations 2
smoothSolver:  Solving for Uy, Initial residual = 0.0557425, Final residual = 2.89452e-08, No Iterations 2
smoothSolver:  Solving for Uz, Initial residual = 0.0534339, Final residual = 2.84621e-08, No Iterations 2
GAMG:  Solving for p, Initial residual = 0.629636, Final residual = 0.0250907, No Iterations 1
GAMG:  Solving for p, Initial residual = 0.177359, Final residual = 0.00833571, No Iterations 2
time step continuity errors : sum local = 3.53813e-06, global = -2.61816e-07, cumulative = 2.40916e-06
GAMG:  Solving for p, Initial residual = 0.248304, Final residual = 0.013234, No Iterations 1
GAMG:  Solving for p, Initial residual = 0.0383528, Final residual = 8.72332e-07, No Iterations 11
time step continuity errors : sum local = 1.25372e-10, global = -7.68138e-12, cumulative = 2.40915e-06
smoothSolver:  Solving for omega, Initial residual = 0.00181988, Final residual = 5.21492e-09, No Iterations 2
smoothSolver:  Solving for k, Initial residual = 0.0291239, Final residual = 4.9282e-08, No Iterations 2
ExecutionTime = 0.51 s  ClockTime = 1 s

Courant Number mean: 0.0134845 max: 0.492525
deltaT = 4.51277e-05
Time = 0.000526384

PIMPLE: iteration 1
smoothSolver:  Solving for Ux, Initial residual = 1.08057e-06, Final residual = 5.44236e-14, No Iterations 1
smoothSolver:  Solving for Uy, Initial residual = 9.2961e-07, Final residual = 9.2961e-07, No Iterations 0
smoothSolver:  Solving for Uz, Initial residual = 8.87177e-07, Final residual = 8.87177e-07, No Iterations 0
GAMG:  Solving for p, Initial residual = 0.999983, Final residual = 0.0395396, No Iterations 1
GAMG:  Solving for p, Initial residual = 0.0466271, Final residual = 0.00216565, No Iterations 2
time step continuity errors : sum local = 3.32458e-06, global = 2.46627e-07, cumulative = 2.65578e-06
GAMG:  Solving for p, Initial residual = 0.999768, Final residual = 0.0395311, No Iterations 1
GAMG:  Solving for p, Initial residual = 0.0466218, Final residual = 7.38498e-07, No Iterations 11
time step continuity errors : sum local = 1.13372e-09, global = 6.48992e-11, cumulative = 2.65584e-06
PIMPLE: iteration 2
smoothSolver:  Solving for Ux, Initial residual = 0.0754722, Final residual = 5.476e-08, No Iterations 2
smoothSolver:  Solving for Uy, Initial residual = 0.05413, Final residual = 2.89438e-08, No Iterations 2
smoothSolver:  Solving for Uz, Initial residual = 0.0518497, Final residual = 2.88984e-08, No Iterations 2
GAMG:  Solving for p, Initial residual = 0.637387, Final residual = 0.0252929, No Iterations 1
GAMG:  Solving for p, Initial residual = 0.18131, Final residual = 0.00839248, No Iterations 2
time step continuity errors : sum local = 3.39476e-06, global = -2.51296e-07, cumulative = 2.40455e-06
GAMG:  Solving for p, Initial residual = 0.250124, Final residual = 0.0133722, No Iterations 1
GAMG:  Solving for p, Initial residual = 0.038949, Final residual = 8.85631e-07, No Iterations 11
time step continuity errors : sum local = 1.20032e-10, global = -7.35557e-12, cumulative = 2.40454e-06
smoothSolver:  Solving for omega, Initial residual = 0.00175603, Final residual = 5.28824e-09, No Iterations 2
smoothSolver:  Solving for k, Initial residual = 0.0261382, Final residual = 4.59773e-08, No Iterations 2
ExecutionTime = 0.54 s  ClockTime = 1 s

Courant Number mean: 0.0136868 max: 0.492791
deltaT = 4.57878e-05
Time = 0.000572171

PIMPLE: iteration 1
smoothSolver:  Solving for Ux, Initial residual = 1.08061e-06, Final residual = 5.43008e-14, No Iterations 1
smoothSolver:  Solving for Uy, Initial residual = 9.22723e-07, Final residual = 9.22723e-07, No Iterations 0
smoothSolver:  Solving for Uz, Initial residual = 8.79829e-07, Final residual = 8.79829e-07, No Iterations 0
GAMG:  Solving for p, Initial residual = 0.999984, Final residual = 0.0393836, No Iterations 1
GAMG:  Solving for p, Initial residual = 0.0464978, Final residual = 0.00212745, No Iterations 2
time step continuity errors : sum local = 3.19972e-06, global = 2.37343e-07, cumulative = 2.64188e-06
GAMG:  Solving for p, Initial residual = 0.999768, Final residual = 0.0393752, No Iterations 1
GAMG:  Solving for p, Initial residual = 0.0464926, Final residual = 7.25331e-07, No Iterations 11
time step continuity errors : sum local = 1.09092e-09, global = 6.24755e-11, cumulative = 2.64194e-06
PIMPLE: iteration 2
smoothSolver:  Solving for Ux, Initial residual = 0.0723652, Final residual = 5.57129e-08, No Iterations 2
smoothSolver:  Solving for Uy, Initial residual = 0.0526827, Final residual = 2.90031e-08, No Iterations 2
smoothSolver:  Solving for Uz, Initial residual = 0.0504302, Final residual = 2.94604e-08, No Iterations 2
GAMG:  Solving for p, Initial residual = 0.6445, Final residual = 0.0254784, No Iterations 1
GAMG:  Solving for p, Initial residual = 0.185092, Final residual = 0.00844505, No Iterations 2
time step continuity errors : sum local = 3.26547e-06, global = -2.41764e-07, cumulative = 2.40018e-06
GAMG:  Solving for p, Initial residual = 0.251602, Final residual = 0.0134925, No Iterations 1
GAMG:  Solving for p, Initial residual = 0.039492, Final residual = 8.97626e-07, No Iterations 11
time step continuity errors : sum local = 1.15226e-10, global = -7.06224e-12, cumulative = 2.40017e-06
smoothSolver:  Solving for omega, Initial residual = 0.00169439, Final residual = 5.3641e-09, No Iterations 2
smoothSolver:  Solving for k, Initial residual = 0.0236363, Final residual = 4.31999e-08, No Iterations 2
ExecutionTime = 0.57 s  ClockTime = 1 s

Courant Number mean: 0.0138847 max: 0.493198
deltaT = 4.64193e-05
Time = 0.000618591

PIMPLE: iteration 1
smoothSolver:  Solving for Ux, Initial residual = 1.08147e-06, Final residual = 5.41681e-14, No Iterations 1
smoothSolver:  Solving for Uy, Initial residual = 9.1702e-07, Final residual = 9.1702e-07, No Iterations 0
smoothSolver:  Solving for Uz, Initial residual = 8.73922e-07, Final residual = 8.73922e-07, No Iterations 0
GAMG:  Solving for p, Initial residual = 0.999984, Final residual = 0.0392421, No Iterations 1
GAMG:  Solving for p, Initial residual = 0.0463902, Final residual = 0.00209269, No Iterations 2
time step continuity errors : sum local = 3.08543e-06, global = 2.28808e-07, cumulative = 2.62898e-06
GAMG:  Solving for p, Initial residual = 0.99977, Final residual = 0.0392338, No Iterations 1
GAMG:  Solving for p, Initial residual = 0.046385, Final residual = 7.13321e-07, No Iterations 11
time step continuity errors : sum local = 1.05172e-09, global = 6.02564e-11, cumulative = 2.62904e-06
PIMPLE: iteration 2
smoothSolver:  Solving for Ux, Initial residual = 0.0696112, Final residual = 5.66632e-08, No Iterations 2
smoothSolver:  Solving for Uy, Initial residual = 0.0513764, Final residual = 2.90898e-08, No Iterations 2
smoothSolver:  Solving for Uz, Initial residual = 0.0491484, Final residual = 2.99945e-08, No Iterations 2
GAMG:  Solving for p, Initial residual = 0.65106, Final residual = 0.0256489, No Iterations 1
GAMG:  Solving for p, Initial residual = 0.18872, Final residual = 0.00849397, No Iterations 2
time step continuity errors : sum local = 3.14704e-06, global = -2.33013e-07, cumulative = 2.39603e-06
GAMG:  Solving for p, Initial residual = 0.252796, Final residual = 0.0135982, No Iterations 1
GAMG:  Solving for p, Initial residual = 0.0399876, Final residual = 9.08445e-07, No Iterations 11
time step continuity errors : sum local = 1.10837e-10, global = -6.79437e-12, cumulative = 2.39602e-06
smoothSolver:  Solving for omega, Initial residual = 0.00163399, Final residual = 5.41958e-09, No Iterations 2
smoothSolver:  Solving for k, Initial residual = 0.0215055, Final residual = 4.10239e-08, No Iterations 2
ExecutionTime = 0.6 s  ClockTime = 1 s

Courant Number mean: 0.0140741 max: 0.493629
deltaT = 4.70185e-05
Time = 0.000665609

PIMPLE: iteration 1
smoothSolver:  Solving for Ux, Initial residual = 1.08221e-06, Final residual = 5.39973e-14, No Iterations 1
smoothSolver:  Solving for Uy, Initial residual = 9.12411e-07, Final residual = 9.12411e-07, No Iterations 0
smoothSolver:  Solving for Uz, Initial residual = 8.6893e-07, Final residual = 8.6893e-07, No Iterations 0
GAMG:  Solving for p, Initial residual = 0.999984, Final residual = 0.0391114, No Iterations 1
GAMG:  Solving for p, Initial residual = 0.0463053, Final residual = 0.00206096, No Iterations 2
time step continuity errors : sum local = 2.97996e-06, global = 2.20911e-07, cumulative = 2.61693e-06
GAMG:  Solving for p, Initial residual = 0.99977, Final residual = 0.0391031, No Iterations 1
GAMG:  Solving for p, Initial residual = 0.0463002, Final residual = 7.0234e-07, No Iterations 11
time step continuity errors : sum local = 1.01553e-09, global = 5.82092e-11, cumulative = 2.61699e-06
PIMPLE: iteration 2
smoothSolver:  Solving for Ux, Initial residual = 0.0671577, Final residual = 5.7592e-08, No Iterations 2
smoothSolver:  Solving for Uy, Initial residual = 0.0501954, Final residual = 2.91607e-08, No Iterations 2
smoothSolver:  Solving for Uz, Initial residual = 0.0479899, Final residual = 3.05135e-08, No Iterations 2
GAMG:  Solving for p, Initial residual = 0.657132, Final residual = 0.0258063, No Iterations 1
GAMG:  Solving for p, Initial residual = 0.192194, Final residual = 0.0085392, No Iterations 2
time step continuity errors : sum local = 3.03793e-06, global = -2.24921e-07, cumulative = 2.39207e-06
GAMG:  Solving for p, Initial residual = 0.253721, Final residual = 0.0136899, No Iterations 1
GAMG:  Solving for p, Initial residual = 0.0404383, Final residual = 9.18228e-07, No Iterations 11
time step continuity errors : sum local = 1.06809e-10, global = -6.54846e-12, cumulative = 2.39206e-06
smoothSolver:  Solving for omega, Initial residual = 0.00157494, Final residual = 5.4507e-09, No Iterations 2
smoothSolver:  Solving for k, Initial residual = 0.0196681, Final residual = 3.90063e-08, No Iterations 2
ExecutionTime = 0.63 s  ClockTime = 1 s

Courant Number mean: 0.0142537 max: 0.493984
deltaT = 4.75911e-05
Time = 0.0007132

PIMPLE: iteration 1
smoothSolver:  Solving for Ux, Initial residual = 1.08272e-06, Final residual = 5.38384e-14, No Iterations 1
smoothSolver:  Solving for Uy, Initial residual = 9.08518e-07, Final residual = 9.08518e-07, No Iterations 0
smoothSolver:  Solving for Uz, Initial residual = 8.64871e-07, Final residual = 8.64871e-07, No Iterations 0
GAMG:  Solving for p, Initial residual = 0.999984, Final residual = 0.0389918, No Iterations 1
GAMG:  Solving for p, Initial residual = 0.0462382, Final residual = 0.00203191, No Iterations 2
time step continuity errors : sum local = 2.88251e-06, global = 2.13596e-07, cumulative = 2.60566e-06
GAMG:  Solving for p, Initial residual = 0.999771, Final residual = 0.0389836, No Iterations 1
GAMG:  Solving for p, Initial residual = 0.0462331, Final residual = 6.92279e-07, No Iterations 11
time step continuity errors : sum local = 9.82096e-10, global = 5.63191e-11, cumulative = 2.60572e-06
PIMPLE: iteration 2
smoothSolver:  Solving for Ux, Initial residual = 0.0649541, Final residual = 5.84822e-08, No Iterations 2
smoothSolver:  Solving for Uy, Initial residual = 0.0491256, Final residual = 2.92471e-08, No Iterations 2
smoothSolver:  Solving for Uz, Initial residual = 0.0469403, Final residual = 3.10433e-08, No Iterations 2
GAMG:  Solving for p, Initial residual = 0.662766, Final residual = 0.0259519, No Iterations 1
GAMG:  Solving for p, Initial residual = 0.195513, Final residual = 0.00858029, No Iterations 2
time step continuity errors : sum local = 2.93716e-06, global = -2.17432e-07, cumulative = 2.38828e-06
GAMG:  Solving for p, Initial residual = 0.254401, Final residual = 0.0137677, No Iterations 1
GAMG:  Solving for p, Initial residual = 0.0408484, Final residual = 9.27052e-07, No Iterations 11
time step continuity errors : sum local = 1.03103e-10, global = -6.32219e-12, cumulative = 2.38828e-06
smoothSolver:  Solving for omega, Initial residual = 0.0015178, Final residual = 5.47451e-09, No Iterations 2
smoothSolver:  Solving for k, Initial residual = 0.0180763, Final residual = 3.72825e-08, No Iterations 2
ExecutionTime = 0.67 s  ClockTime = 1 s

Courant Number mean: 0.0144254 max: 0.494347
deltaT = 4.81352e-05
Time = 0.000761336

PIMPLE: iteration 1
smoothSolver:  Solving for Ux, Initial residual = 1.08296e-06, Final residual = 5.36782e-14, No Iterations 1
smoothSolver:  Solving for Uy, Initial residual = 9.05276e-07, Final residual = 9.05276e-07, No Iterations 0
smoothSolver:  Solving for Uz, Initial residual = 8.61399e-07, Final residual = 8.61399e-07, No Iterations 0
GAMG:  Solving for p, Initial residual = 0.999985, Final residual = 0.038883, No Iterations 1
GAMG:  Solving for p, Initial residual = 0.0461867, Final residual = 0.0045952, No Iterations 1
time step continuity errors : sum local = 6.39808e-06, global = 2.85579e-07, cumulative = 2.67386e-06
GAMG:  Solving for p, Initial residual = 0.999777, Final residual = 0.0388751, No Iterations 1
GAMG:  Solving for p, Initial residual = 0.0461818, Final residual = 6.83053e-07, No Iterations 11
time step continuity errors : sum local = 9.5105e-10, global = 5.45647e-11, cumulative = 2.67391e-06
PIMPLE: iteration 2
smoothSolver:  Solving for Ux, Initial residual = 0.0629708, Final residual = 5.93208e-08, No Iterations 2
smoothSolver:  Solving for Uy, Initial residual = 0.0481518, Final residual = 2.93369e-08, No Iterations 2
smoothSolver:  Solving for Uz, Initial residual = 0.0459842, Final residual = 3.15512e-08, No Iterations 2
GAMG:  Solving for p, Initial residual = 0.667984, Final residual = 0.0260856, No Iterations 1
GAMG:  Solving for p, Initial residual = 0.198677, Final residual = 0.0198218, No Iterations 1
time step continuity errors : sum local = 6.54061e-06, global = -2.81369e-07, cumulative = 2.39254e-06
GAMG:  Solving for p, Initial residual = 0.120371, Final residual = 0.00662739, No Iterations 2
GAMG:  Solving for p, Initial residual = 0.148393, Final residual = 4.42995e-07, No Iterations 12
time step continuity errors : sum local = 4.44669e-11, global = -2.69219e-12, cumulative = 2.39254e-06
smoothSolver:  Solving for omega, Initial residual = 0.00146236, Final residual = 5.49214e-09, No Iterations 2
smoothSolver:  Solving for k, Initial residual = 0.0166788, Final residual = 3.55244e-08, No Iterations 2
ExecutionTime = 0.7 s  ClockTime = 1 s

Courant Number mean: 0.0145887 max: 0.49616
deltaT = 4.85078e-05
Time = 0.000809843

PIMPLE: iteration 1
smoothSolver:  Solving for Ux, Initial residual = 1.08335e-06, Final residual = 5.33377e-14, No Iterations 1
smoothSolver:  Solving for Uy, Initial residual = 8.99389e-07, Final residual = 8.99389e-07, No Iterations 0
smoothSolver:  Solving for Uz, Initial residual = 8.56246e-07, Final residual = 8.56246e-07, No Iterations 0
GAMG:  Solving for p, Initial residual = 0.999984, Final residual = 0.0387668, No Iterations 1
GAMG:  Solving for p, Initial residual = 0.0461405, Final residual = 0.00453551, No Iterations 1
time step continuity errors : sum local = 6.17594e-06, global = 2.78281e-07, cumulative = 2.67082e-06
GAMG:  Solving for p, Initial residual = 0.999778, Final residual = 0.038759, No Iterations 1
GAMG:  Solving for p, Initial residual = 0.0461356, Final residual = 6.73537e-07, No Iterations 11
time step continuity errors : sum local = 9.17153e-10, global = 5.26531e-11, cumulative = 2.67087e-06
PIMPLE: iteration 2
smoothSolver:  Solving for Ux, Initial residual = 0.0610577, Final residual = 5.95674e-08, No Iterations 2
smoothSolver:  Solving for Uy, Initial residual = 0.0472398, Final residual = 2.91879e-08, No Iterations 2
smoothSolver:  Solving for Uz, Initial residual = 0.0450878, Final residual = 3.1793e-08, No Iterations 2
GAMG:  Solving for p, Initial residual = 0.673924, Final residual = 0.0262337, No Iterations 1
GAMG:  Solving for p, Initial residual = 0.202246, Final residual = 0.0199101, No Iterations 1
time step continuity errors : sum local = 6.30972e-06, global = -2.74248e-07, cumulative = 2.39662e-06
GAMG:  Solving for p, Initial residual = 0.119937, Final residual = 0.00663925, No Iterations 2
GAMG:  Solving for p, Initial residual = 0.145907, Final residual = 4.34491e-07, No Iterations 12
time step continuity errors : sum local = 4.28708e-11, global = -2.59676e-12, cumulative = 2.39662e-06
smoothSolver:  Solving for omega, Initial residual = 0.00140489, Final residual = 5.4213e-09, No Iterations 2
smoothSolver:  Solving for k, Initial residual = 0.0154004, Final residual = 3.36324e-08, No Iterations 2
ExecutionTime = 0.73 s  ClockTime = 1 s

Courant Number mean: 0.0147 max: 0.498486
deltaT = 4.86551e-05
Time = 0.000858498

PIMPLE: iteration 1
smoothSolver:  Solving for Ux, Initial residual = 1.07535e-06, Final residual = 5.24131e-14, No Iterations 1
smoothSolver:  Solving for Uy, Initial residual = 8.90594e-07, Final residual = 8.90594e-07, No Iterations 0
smoothSolver:  Solving for Uz, Initial residual = 8.47546e-07, Final residual = 8.47546e-07, No Iterations 0
GAMG:  Solving for p, Initial residual = 0.999985, Final residual = 0.0386633, No Iterations 1
GAMG:  Solving for p, Initial residual = 0.046096, Final residual = 0.00447646, No Iterations 1
time step continuity errors : sum local = 5.94128e-06, global = 2.69837e-07, cumulative = 2.66646e-06
GAMG:  Solving for p, Initial residual = 0.999778, Final residual = 0.0386554, No Iterations 1
GAMG:  Solving for p, Initial residual = 0.0460911, Final residual = 6.64014e-07, No Iterations 11
time step continuity errors : sum local = 8.81305e-10, global = 5.06256e-11, cumulative = 2.66651e-06
PIMPLE: iteration 2
smoothSolver:  Solving for Ux, Initial residual = 0.0592711, Final residual = 5.92035e-08, No Iterations 2
smoothSolver:  Solving for Uy, Initial residual = 0.0463542, Final residual = 2.87618e-08, No Iterations 2
smoothSolver:  Solving for Uz, Initial residual = 0.0442147, Final residual = 3.16644e-08, No Iterations 2
GAMG:  Solving for p, Initial residual = 0.678941, Final residual = 0.0263629, No Iterations 1
GAMG:  Solving for p, Initial residual = 0.205511, Final residual = 0.0200007, No Iterations 1
time step continuity errors : sum local = 6.0664e-06, global = -2.65518e-07, cumulative = 2.40099e-06
GAMG:  Solving for p, Initial residual = 0.119564, Final residual = 0.00664774, No Iterations 2
GAMG:  Solving for p, Initial residual = 0.143481, Final residual = 4.26341e-07, No Iterations 12
time step continuity errors : sum local = 4.11596e-11, global = -2.49351e-12, cumulative = 2.40099e-06
smoothSolver:  Solving for omega, Initial residual = 0.00134475, Final residual = 5.26714e-09, No Iterations 2
smoothSolver:  Solving for k, Initial residual = 0.0142116, Final residual = 3.14405e-08, No Iterations 2
ExecutionTime = 0.76 s  ClockTime = 1 s

Courant Number mean: 0.0147431 max: 0.498469
deltaT = 4.88045e-05
Time = 0.000907303

PIMPLE: iteration 1
smoothSolver:  Solving for Ux, Initial residual = 1.06785e-06, Final residual = 5.15634e-14, No Iterations 1
smoothSolver:  Solving for Uy, Initial residual = 8.8288e-07, Final residual = 8.8288e-07, No Iterations 0
smoothSolver:  Solving for Uz, Initial residual = 8.39826e-07, Final residual = 8.39826e-07, No Iterations 0
GAMG:  Solving for p, Initial residual = 0.999985, Final residual = 0.038569, No Iterations 1
GAMG:  Solving for p, Initial residual = 0.0460637, Final residual = 0.00442253, No Iterations 1
time step continuity errors : sum local = 5.72716e-06, global = 2.62229e-07, cumulative = 2.66322e-06
GAMG:  Solving for p, Initial residual = 0.999779, Final residual = 0.0385612, No Iterations 1
GAMG:  Solving for p, Initial residual = 0.0460589, Final residual = 6.55173e-07, No Iterations 11
time step continuity errors : sum local = 8.48454e-10, global = 4.87692e-11, cumulative = 2.66327e-06
PIMPLE: iteration 2
smoothSolver:  Solving for Ux, Initial residual = 0.0576573, Final residual = 5.89227e-08, No Iterations 2
smoothSolver:  Solving for Uy, Initial residual = 0.0455529, Final residual = 2.84198e-08, No Iterations 2
smoothSolver:  Solving for Uz, Initial residual = 0.0434253, Final residual = 3.1576e-08, No Iterations 2
GAMG:  Solving for p, Initial residual = 0.683644, Final residual = 0.0264835, No Iterations 1
GAMG:  Solving for p, Initial residual = 0.208691, Final residual = 0.0200906, No Iterations 1
time step continuity errors : sum local = 5.84541e-06, global = -2.5766e-07, cumulative = 2.40561e-06
GAMG:  Solving for p, Initial residual = 0.11917, Final residual = 0.006654, No Iterations 2
GAMG:  Solving for p, Initial residual = 0.141243, Final residual = 4.18793e-07, No Iterations 12
time step continuity errors : sum local = 3.96e-11, global = -2.39939e-12, cumulative = 2.4056e-06
smoothSolver:  Solving for omega, Initial residual = 0.00128843, Final residual = 5.12055e-09, No Iterations 2
smoothSolver:  Solving for k, Initial residual = 0.013164, Final residual = 2.95629e-08, No Iterations 2
ExecutionTime = 0.8 s  ClockTime = 1 s

Courant Number mean: 0.014787 max: 0.498462
deltaT = 4.89551e-05
Time = 0.000956258

PIMPLE: iteration 1
smoothSolver:  Solving for Ux, Initial residual = 1.06056e-06, Final residual = 5.0787e-14, No Iterations 1
smoothSolver:  Solving for Uy, Initial residual = 8.75714e-07, Final residual = 8.75714e-07, No Iterations 0
smoothSolver:  Solving for Uz, Initial residual = 8.32712e-07, Final residual = 8.32712e-07, No Iterations 0
GAMG:  Solving for p, Initial residual = 0.999985, Final residual = 0.0384827, No Iterations 1
GAMG:  Solving for p, Initial residual = 0.0460413, Final residual = 0.00437297, No Iterations 1
time step continuity errors : sum local = 5.53089e-06, global = 2.55347e-07, cumulative = 2.66095e-06
GAMG:  Solving for p, Initial residual = 0.999779, Final residual = 0.0384749, No Iterations 1
GAMG:  Solving for p, Initial residual = 0.0460364, Final residual = 6.46929e-07, No Iterations 11
time step continuity errors : sum local = 8.18237e-10, global = 4.70631e-11, cumulative = 2.661e-06
PIMPLE: iteration 2
smoothSolver:  Solving for Ux, Initial residual = 0.0561852, Final residual = 5.86768e-08, No Iterations 2
smoothSolver:  Solving for Uy, Initial residual = 0.0448192, Final residual = 2.8129e-08, No Iterations 2
smoothSolver:  Solving for Uz, Initial residual = 0.0427, Final residual = 3.1516e-08, No Iterations 2
GAMG:  Solving for p, Initial residual = 0.688012, Final residual = 0.0265954, No Iterations 1
GAMG:  Solving for p, Initial residual = 0.21176, Final residual = 0.0201791, No Iterations 1
time step continuity errors : sum local = 5.64309e-06, global = -2.50588e-07, cumulative = 2.41041e-06
GAMG:  Solving for p, Initial residual = 0.118766, Final residual = 0.00665824, No Iterations 2
GAMG:  Solving for p, Initial residual = 0.139153, Final residual = 4.11739e-07, No Iterations 12
time step continuity errors : sum local = 3.81678e-11, global = -2.31294e-12, cumulative = 2.41041e-06
smoothSolver:  Solving for omega, Initial residual = 0.00123578, Final residual = 4.9854e-09, No Iterations 2
smoothSolver:  Solving for k, Initial residual = 0.0122366, Final residual = 2.79838e-08, No Iterations 2
ExecutionTime = 0.84 s  ClockTime = 1 s

Courant Number mean: 0.0148313 max: 0.498488
deltaT = 4.91035e-05
Time = 0.00100536

PIMPLE: iteration 1
smoothSolver:  Solving for Ux, Initial residual = 1.05336e-06, Final residual = 5.00477e-14, No Iterations 1
smoothSolver:  Solving for Uy, Initial residual = 8.68982e-07, Final residual = 8.68982e-07, No Iterations 0
smoothSolver:  Solving for Uz, Initial residual = 8.26052e-07, Final residual = 8.26052e-07, No Iterations 0
GAMG:  Solving for p, Initial residual = 0.999985, Final residual = 0.0384026, No Iterations 1
GAMG:  Solving for p, Initial residual = 0.0460267, Final residual = 0.0043275, No Iterations 1
time step continuity errors : sum local = 5.35022e-06, global = 2.49112e-07, cumulative = 2.65952e-06
GAMG:  Solving for p, Initial residual = 0.99978, Final residual = 0.0383949, No Iterations 1
GAMG:  Solving for p, Initial residual = 0.0460219, Final residual = 6.39243e-07, No Iterations 11
time step continuity errors : sum local = 7.90321e-10, global = 4.54884e-11, cumulative = 2.65956e-06
PIMPLE: iteration 2
smoothSolver:  Solving for Ux, Initial residual = 0.0548349, Final residual = 5.84565e-08, No Iterations 2
smoothSolver:  Solving for Uy, Initial residual = 0.0441471, Final residual = 2.78787e-08, No Iterations 2
smoothSolver:  Solving for Uz, Initial residual = 0.0420324, Final residual = 3.14728e-08, No Iterations 2
GAMG:  Solving for p, Initial residual = 0.692065, Final residual = 0.0266994, No Iterations 1
GAMG:  Solving for p, Initial residual = 0.214716, Final residual = 0.0202658, No Iterations 1
time step continuity errors : sum local = 5.4567e-06, global = -2.44138e-07, cumulative = 2.41543e-06
GAMG:  Solving for p, Initial residual = 0.118344, Final residual = 0.00665966, No Iterations 2
GAMG:  Solving for p, Initial residual = 0.137182, Final residual = 9.84572e-07, No Iterations 11
time step continuity errors : sum local = 8.95536e-11, global = -5.54589e-12, cumulative = 2.41542e-06
smoothSolver:  Solving for omega, Initial residual = 0.00118628, Final residual = 4.85624e-09, No Iterations 2
smoothSolver:  Solving for k, Initial residual = 0.0114078, Final residual = 2.65503e-08, No Iterations 2
ExecutionTime = 0.87 s  ClockTime = 1 s

Courant Number mean: 0.014875 max: 0.498547
deltaT = 4.92466e-05
Time = 0.00105461

PIMPLE: iteration 1
smoothSolver:  Solving for Ux, Initial residual = 1.04608e-06, Final residual = 4.93383e-14, No Iterations 1
smoothSolver:  Solving for Uy, Initial residual = 8.62601e-07, Final residual = 8.62601e-07, No Iterations 0
smoothSolver:  Solving for Uz, Initial residual = 8.19704e-07, Final residual = 8.19704e-07, No Iterations 0
GAMG:  Solving for p, Initial residual = 0.999985, Final residual = 0.0383296, No Iterations 1
GAMG:  Solving for p, Initial residual = 0.0460188, Final residual = 0.0042857, No Iterations 1
time step continuity errors : sum local = 5.18298e-06, global = 2.4344e-07, cumulative = 2.65886e-06
GAMG:  Solving for p, Initial residual = 0.99978, Final residual = 0.0383219, No Iterations 1
GAMG:  Solving for p, Initial residual = 0.046014, Final residual = 6.32058e-07, No Iterations 11
time step continuity errors : sum local = 7.64395e-10, global = 4.40276e-11, cumulative = 2.65891e-06
PIMPLE: iteration 2
smoothSolver:  Solving for Ux, Initial residual = 0.0535886, Final residual = 5.82744e-08, No Iterations 2
smoothSolver:  Solving for Uy, Initial residual = 0.043528, Final residual = 2.76582e-08, No Iterations 2
smoothSolver:  Solving for Uz, Initial residual = 0.0414173, Final residual = 3.14395e-08, No Iterations 2
GAMG:  Solving for p, Initial residual = 0.695866, Final residual = 0.0267959, No Iterations 1
GAMG:  Solving for p, Initial residual = 0.217588, Final residual = 0.0203516, No Iterations 1
time step continuity errors : sum local = 5.28416e-06, global = -2.38269e-07, cumulative = 2.42064e-06
GAMG:  Solving for p, Initial residual = 0.117911, Final residual = 0.00665934, No Iterations 2
GAMG:  Solving for p, Initial residual = 0.135349, Final residual = 9.69473e-07, No Iterations 11
time step continuity errors : sum local = 8.65719e-11, global = -5.36192e-12, cumulative = 2.42063e-06
smoothSolver:  Solving for omega, Initial residual = 0.00113971, Final residual = 4.72814e-09, No Iterations 2
smoothSolver:  Solving for k, Initial residual = 0.0106633, Final residual = 2.52416e-08, No Iterations 2
ExecutionTime = 0.9 s  ClockTime = 1 s

Courant Number mean: 0.0149171 max: 0.498574
deltaT = 4.93874e-05
Time = 0.001104

PIMPLE: iteration 1
smoothSolver:  Solving for Ux, Initial residual = 1.03879e-06, Final residual = 4.86421e-14, No Iterations 1
smoothSolver:  Solving for Uy, Initial residual = 8.5656e-07, Final residual = 8.5656e-07, No Iterations 0
smoothSolver:  Solving for Uz, Initial residual = 8.13668e-07, Final residual = 8.13668e-07, No Iterations 0
GAMG:  Solving for p, Initial residual = 0.999985, Final residual = 0.0382616, No Iterations 1
GAMG:  Solving for p, Initial residual = 0.0460193, Final residual = 0.0042472, No Iterations 1
time step continuity errors : sum local = 5.02798e-06, global = 2.38292e-07, cumulative = 2.65892e-06
GAMG:  Solving for p, Initial residual = 0.999781, Final residual = 0.0382539, No Iterations 1
GAMG:  Solving for p, Initial residual = 0.0460145, Final residual = 6.25341e-07, No Iterations 11
time step continuity errors : sum local = 7.40304e-10, global = 4.26718e-11, cumulative = 2.65897e-06
PIMPLE: iteration 2
smoothSolver:  Solving for Ux, Initial residual = 0.0524379, Final residual = 5.81189e-08, No Iterations 2
smoothSolver:  Solving for Uy, Initial residual = 0.0429575, Final residual = 2.74799e-08, No Iterations 2
smoothSolver:  Solving for Uz, Initial residual = 0.0408492, Final residual = 3.14317e-08, No Iterations 2
GAMG:  Solving for p, Initial residual = 0.699456, Final residual = 0.0268877, No Iterations 1
GAMG:  Solving for p, Initial residual = 0.220371, Final residual = 0.0204357, No Iterations 1
time step continuity errors : sum local = 5.12453e-06, global = -2.32922e-07, cumulative = 2.42604e-06
GAMG:  Solving for p, Initial residual = 0.117461, Final residual = 0.00665712, No Iterations 2
GAMG:  Solving for p, Initial residual = 0.133635, Final residual = 9.55325e-07, No Iterations 11
time step continuity errors : sum local = 8.3804e-11, global = -5.19118e-12, cumulative = 2.42604e-06
smoothSolver:  Solving for omega, Initial residual = 0.00109589, Final residual = 4.60467e-09, No Iterations 2
smoothSolver:  Solving for k, Initial residual = 0.00999258, Final residual = 2.40695e-08, No Iterations 2
ExecutionTime = 0.93 s  ClockTime = 1 s

Courant Number mean: 0.0149586 max: 0.498608
deltaT = 4.95253e-05
Time = 0.00115352

PIMPLE: iteration 1
smoothSolver:  Solving for Ux, Initial residual = 1.03147e-06, Final residual = 4.79625e-14, No Iterations 1
smoothSolver:  Solving for Uy, Initial residual = 8.50787e-07, Final residual = 8.50787e-07, No Iterations 0
smoothSolver:  Solving for Uz, Initial residual = 8.0794e-07, Final residual = 8.0794e-07, No Iterations 0
GAMG:  Solving for p, Initial residual = 0.999985, Final residual = 0.0382004, No Iterations 1
GAMG:  Solving for p, Initial residual = 0.0460273, Final residual = 0.00421174, No Iterations 1
time step continuity errors : sum local = 4.88393e-06, global = 2.33602e-07, cumulative = 2.65964e-06
GAMG:  Solving for p, Initial residual = 0.999781, Final residual = 0.0381927, No Iterations 1
GAMG:  Solving for p, Initial residual = 0.0460224, Final residual = 6.19051e-07, No Iterations 11
time step continuity errors : sum local = 7.17855e-10, global = 4.14098e-11, cumulative = 2.65968e-06
PIMPLE: iteration 2
smoothSolver:  Solving for Ux, Initial residual = 0.0513751, Final residual = 5.79791e-08, No Iterations 2
smoothSolver:  Solving for Uy, Initial residual = 0.0424335, Final residual = 2.73374e-08, No Iterations 2
smoothSolver:  Solving for Uz, Initial residual = 0.0403237, Final residual = 3.14445e-08, No Iterations 2
GAMG:  Solving for p, Initial residual = 0.70283, Final residual = 0.0269748, No Iterations 1
GAMG:  Solving for p, Initial residual = 0.223066, Final residual = 0.0205166, No Iterations 1
time step continuity errors : sum local = 4.976e-06, global = -2.28043e-07, cumulative = 2.43164e-06
GAMG:  Solving for p, Initial residual = 0.116991, Final residual = 0.00665263, No Iterations 2
GAMG:  Solving for p, Initial residual = 0.13202, Final residual = 9.4198e-07, No Iterations 11
time step continuity errors : sum local = 8.12282e-11, global = -5.0323e-12, cumulative = 2.43163e-06
smoothSolver:  Solving for omega, Initial residual = 0.00105452, Final residual = 4.48295e-09, No Iterations 2
smoothSolver:  Solving for k, Initial residual = 0.00938448, Final residual = 2.29923e-08, No Iterations 2
ExecutionTime = 0.96 s  ClockTime = 1 s

Courant Number mean: 0.0149993 max: 0.49865
deltaT = 4.96594e-05
Time = 0.00120318

PIMPLE: iteration 1
smoothSolver:  Solving for Ux, Initial residual = 1.02412e-06, Final residual = 4.73109e-14, No Iterations 1
smoothSolver:  Solving for Uy, Initial residual = 8.45259e-07, Final residual = 8.45259e-07, No Iterations 0
smoothSolver:  Solving for Uz, Initial residual = 8.02408e-07, Final residual = 8.02408e-07, No Iterations 0
GAMG:  Solving for p, Initial residual = 0.999986, Final residual = 0.038144, No Iterations 1
GAMG:  Solving for p, Initial residual = 0.0460409, Final residual = 0.00417904, No Iterations 1
time step continuity errors : sum local = 4.74961e-06, global = 2.29321e-07, cumulative = 2.66095e-06
GAMG:  Solving for p, Initial residual = 0.999781, Final residual = 0.0381364, No Iterations 1
GAMG:  Solving for p, Initial residual = 0.0460361, Final residual = 6.13158e-07, No Iterations 11
time step continuity errors : sum local = 6.96877e-10, global = 4.02318e-11, cumulative = 2.661e-06
PIMPLE: iteration 2
smoothSolver:  Solving for Ux, Initial residual = 0.0503941, Final residual = 5.78479e-08, No Iterations 2
smoothSolver:  Solving for Uy, Initial residual = 0.0419504, Final residual = 2.72049e-08, No Iterations 2
smoothSolver:  Solving for Uz, Initial residual = 0.0398368, Final residual = 3.14677e-08, No Iterations 2
GAMG:  Solving for p, Initial residual = 0.705984, Final residual = 0.0270564, No Iterations 1
GAMG:  Solving for p, Initial residual = 0.225676, Final residual = 0.0205937, No Iterations 1
time step continuity errors : sum local = 4.83714e-06, global = -2.23585e-07, cumulative = 2.43741e-06
GAMG:  Solving for p, Initial residual = 0.116524, Final residual = 0.00664658, No Iterations 2
GAMG:  Solving for p, Initial residual = 0.13051, Final residual = 9.29459e-07, No Iterations 11
time step continuity errors : sum local = 7.88206e-11, global = -4.88386e-12, cumulative = 2.43741e-06
smoothSolver:  Solving for omega, Initial residual = 0.00101544, Final residual = 4.36549e-09, No Iterations 2
smoothSolver:  Solving for k, Initial residual = 0.00883187, Final residual = 2.20046e-08, No Iterations 2
ExecutionTime = 0.99 s  ClockTime = 1 s

Courant Number mean: 0.0150389 max: 0.498692
deltaT = 4.97897e-05
Time = 0.00125297

PIMPLE: iteration 1
smoothSolver:  Solving for Ux, Initial residual = 1.01671e-06, Final residual = 4.66775e-14, No Iterations 1
smoothSolver:  Solving for Uy, Initial residual = 8.3995e-07, Final residual = 8.3995e-07, No Iterations 0
smoothSolver:  Solving for Uz, Initial residual = 7.97046e-07, Final residual = 7.97046e-07, No Iterations 0
GAMG:  Solving for p, Initial residual = 0.999986, Final residual = 0.0380909, No Iterations 1
GAMG:  Solving for p, Initial residual = 0.0460608, Final residual = 0.00414883, No Iterations 1
time step continuity errors : sum local = 4.62397e-06, global = 2.25407e-07, cumulative = 2.66281e-06
GAMG:  Solving for p, Initial residual = 0.999782, Final residual = 0.0380833, No Iterations 1
GAMG:  Solving for p, Initial residual = 0.046056, Final residual = 6.07624e-07, No Iterations 11
time step continuity errors : sum local = 6.77216e-10, global = 3.9129e-11, cumulative = 2.66285e-06
PIMPLE: iteration 2
smoothSolver:  Solving for Ux, Initial residual = 0.049485, Final residual = 5.77364e-08, No Iterations 2
smoothSolver:  Solving for Uy, Initial residual = 0.0415053, Final residual = 2.70899e-08, No Iterations 2
smoothSolver:  Solving for Uz, Initial residual = 0.0393849, Final residual = 3.15057e-08, No Iterations 2
GAMG:  Solving for p, Initial residual = 0.708965, Final residual = 0.0271353, No Iterations 1
GAMG:  Solving for p, Initial residual = 0.2282, Final residual = 0.0206689, No Iterations 1
time step continuity errors : sum local = 4.70736e-06, global = -2.19502e-07, cumulative = 2.44335e-06
GAMG:  Solving for p, Initial residual = 0.116064, Final residual = 0.00663961, No Iterations 2
GAMG:  Solving for p, Initial residual = 0.12912, Final residual = 9.17886e-07, No Iterations 11
time step continuity errors : sum local = 7.65711e-11, global = -4.74514e-12, cumulative = 2.44335e-06
smoothSolver:  Solving for omega, Initial residual = 0.00097847, Final residual = 4.25269e-09, No Iterations 2
smoothSolver:  Solving for k, Initial residual = 0.00832742, Final residual = 2.10994e-08, No Iterations 2
ExecutionTime = 1.02 s  ClockTime = 1 s

Courant Number mean: 0.0150773 max: 0.498732
deltaT = 4.99163e-05
Time = 0.00130289

PIMPLE: iteration 1
smoothSolver:  Solving for Ux, Initial residual = 1.00928e-06, Final residual = 4.60669e-14, No Iterations 1
smoothSolver:  Solving for Uy, Initial residual = 8.34817e-07, Final residual = 8.34817e-07, No Iterations 0
smoothSolver:  Solving for Uz, Initial residual = 7.9185e-07, Final residual = 7.9185e-07, No Iterations 0
GAMG:  Solving for p, Initial residual = 0.999986, Final residual = 0.0380444, No Iterations 1
GAMG:  Solving for p, Initial residual = 0.0460867, Final residual = 0.00412086, No Iterations 1
time step continuity errors : sum local = 4.50614e-06, global = 2.21827e-07, cumulative = 2.66517e-06
GAMG:  Solving for p, Initial residual = 0.999782, Final residual = 0.0380368, No Iterations 1
GAMG:  Solving for p, Initial residual = 0.0460819, Final residual = 6.02435e-07, No Iterations 11
time step continuity errors : sum local = 6.58764e-10, global = 3.80953e-11, cumulative = 2.66521e-06
PIMPLE: iteration 2
[...]
smoothSolver:  Solving for omega, Initial residual = 1.90419e-05, Final residual = 2.0254e-08, No Iterations 1
smoothSolver:  Solving for k, Initial residual = 0.000166257, Final residual = 1.65803e-07, No Iterations 1
ExecutionTime = 52.13 s  ClockTime = 52 s

Courant Number mean: 0.0200965 max: 0.499974
deltaT = 6.66993e-05
Time = 0.0996674

PIMPLE: iteration 1
smoothSolver:  Solving for Ux, Initial residual = 8.62178e-09, Final residual = 8.62178e-09, No Iterations 0
smoothSolver:  Solving for Uy, Initial residual = 3.07277e-08, Final residual = 3.07277e-08, No Iterations 0
smoothSolver:  Solving for Uz, Initial residual = 2.30548e-08, Final residual = 2.30548e-08, No Iterations 0
GAMG:  Solving for p, Initial residual = 0.999979, Final residual = 0.0445463, No Iterations 1
GAMG:  Solving for p, Initial residual = 0.0537983, Final residual = 0.00201428, No Iterations 2
time step continuity errors : sum local = 2.15907e-07, global = -7.09815e-09, cumulative = 3.08107e-06
GAMG:  Solving for p, Initial residual = 0.999776, Final residual = 0.0445373, No Iterations 1
GAMG:  Solving for p, Initial residual = 0.0537929, Final residual = 7.82417e-07, No Iterations 11
time step continuity errors : sum local = 8.38664e-11, global = -4.73025e-12, cumulative = 3.08107e-06
PIMPLE: iteration 2
smoothSolver:  Solving for Ux, Initial residual = 0.00157339, Final residual = 1.53777e-08, No Iterations 2
smoothSolver:  Solving for Uy, Initial residual = 0.0100564, Final residual = 5.33995e-08, No Iterations 2
smoothSolver:  Solving for Uz, Initial residual = 0.00691342, Final residual = 4.73721e-08, No Iterations 2
GAMG:  Solving for p, Initial residual = 0.728078, Final residual = 0.0327319, No Iterations 1
GAMG:  Solving for p, Initial residual = 0.277773, Final residual = 0.010603, No Iterations 2
time step continuity errors : sum local = 2.20851e-07, global = 7.37827e-09, cumulative = 3.08845e-06
GAMG:  Solving for p, Initial residual = 0.118383, Final residual = 0.00897876, No Iterations 1
GAMG:  Solving for p, Initial residual = 0.0243124, Final residual = 7.08036e-07, No Iterations 11
time step continuity errors : sum local = 9.51605e-12, global = 5.59186e-13, cumulative = 3.08845e-06
smoothSolver:  Solving for omega, Initial residual = 1.903e-05, Final residual = 2.02427e-08, No Iterations 1
smoothSolver:  Solving for k, Initial residual = 0.000166176, Final residual = 1.65707e-07, No Iterations 1
ExecutionTime = 52.16 s  ClockTime = 52 s

Courant Number mean: 0.0200975 max: 0.499974
deltaT = 6.67027e-05
Time = 0.0997341

PIMPLE: iteration 1
smoothSolver:  Solving for Ux, Initial residual = 8.61805e-09, Final residual = 8.61805e-09, No Iterations 0
smoothSolver:  Solving for Uy, Initial residual = 3.07121e-08, Final residual = 3.07121e-08, No Iterations 0
smoothSolver:  Solving for Uz, Initial residual = 2.30472e-08, Final residual = 2.30472e-08, No Iterations 0
GAMG:  Solving for p, Initial residual = 0.999979, Final residual = 0.0445467, No Iterations 1
GAMG:  Solving for p, Initial residual = 0.0537997, Final residual = 0.00201428, No Iterations 2
time step continuity errors : sum local = 2.15929e-07, global = -7.10009e-09, cumulative = 3.08135e-06
GAMG:  Solving for p, Initial residual = 0.999776, Final residual = 0.0445378, No Iterations 1
GAMG:  Solving for p, Initial residual = 0.0537943, Final residual = 7.82371e-07, No Iterations 11
time step continuity errors : sum local = 8.387e-11, global = -4.73068e-12, cumulative = 3.08134e-06
PIMPLE: iteration 2
smoothSolver:  Solving for Ux, Initial residual = 0.00157327, Final residual = 1.53757e-08, No Iterations 2
smoothSolver:  Solving for Uy, Initial residual = 0.0100556, Final residual = 5.3388e-08, No Iterations 2
smoothSolver:  Solving for Uz, Initial residual = 0.00691349, Final residual = 4.73675e-08, No Iterations 2
GAMG:  Solving for p, Initial residual = 0.728069, Final residual = 0.0327319, No Iterations 1
GAMG:  Solving for p, Initial residual = 0.277771, Final residual = 0.0106026, No Iterations 2
time step continuity errors : sum local = 2.20873e-07, global = 7.38032e-09, cumulative = 3.08872e-06
GAMG:  Solving for p, Initial residual = 0.118387, Final residual = 0.00897882, No Iterations 1
GAMG:  Solving for p, Initial residual = 0.0243133, Final residual = 7.08034e-07, No Iterations 11
time step continuity errors : sum local = 9.51689e-12, global = 5.59247e-13, cumulative = 3.08872e-06
smoothSolver:  Solving for omega, Initial residual = 1.90182e-05, Final residual = 2.02314e-08, No Iterations 1
smoothSolver:  Solving for k, Initial residual = 0.000166095, Final residual = 1.65612e-07, No Iterations 1
ExecutionTime = 52.19 s  ClockTime = 53 s

Courant Number mean: 0.0200985 max: 0.499974
deltaT = 6.67061e-05
Time = 0.0998008

PIMPLE: iteration 1
smoothSolver:  Solving for Ux, Initial residual = 8.61475e-09, Final residual = 8.61475e-09, No Iterations 0
smoothSolver:  Solving for Uy, Initial residual = 3.06973e-08, Final residual = 3.06973e-08, No Iterations 0
smoothSolver:  Solving for Uz, Initial residual = 2.3039e-08, Final residual = 2.3039e-08, No Iterations 0
GAMG:  Solving for p, Initial residual = 0.999979, Final residual = 0.0445472, No Iterations 1
GAMG:  Solving for p, Initial residual = 0.0538011, Final residual = 0.00201428, No Iterations 2
time step continuity errors : sum local = 2.15951e-07, global = -7.102e-09, cumulative = 3.08162e-06
GAMG:  Solving for p, Initial residual = 0.999776, Final residual = 0.0445383, No Iterations 1
GAMG:  Solving for p, Initial residual = 0.0537956, Final residual = 7.82323e-07, No Iterations 11
time step continuity errors : sum local = 8.38732e-11, global = -4.73111e-12, cumulative = 3.08162e-06
PIMPLE: iteration 2
smoothSolver:  Solving for Ux, Initial residual = 0.00157315, Final residual = 1.53739e-08, No Iterations 2
smoothSolver:  Solving for Uy, Initial residual = 0.0100548, Final residual = 5.33767e-08, No Iterations 2
smoothSolver:  Solving for Uz, Initial residual = 0.00691356, Final residual = 4.73629e-08, No Iterations 2
GAMG:  Solving for p, Initial residual = 0.72806, Final residual = 0.0327319, No Iterations 1
GAMG:  Solving for p, Initial residual = 0.277768, Final residual = 0.0106023, No Iterations 2
time step continuity errors : sum local = 2.20895e-07, global = 7.38232e-09, cumulative = 3.089e-06
GAMG:  Solving for p, Initial residual = 0.118391, Final residual = 0.00897889, No Iterations 1
GAMG:  Solving for p, Initial residual = 0.0243142, Final residual = 7.08033e-07, No Iterations 11
time step continuity errors : sum local = 9.51773e-12, global = 5.59308e-13, cumulative = 3.089e-06
smoothSolver:  Solving for omega, Initial residual = 1.90064e-05, Final residual = 2.022e-08, No Iterations 1
smoothSolver:  Solving for k, Initial residual = 0.000166014, Final residual = 1.65515e-07, No Iterations 1
ExecutionTime = 52.22 s  ClockTime = 53 s

Courant Number mean: 0.0200995 max: 0.499975
deltaT = 6.67095e-05
Time = 0.0998675

PIMPLE: iteration 1
smoothSolver:  Solving for Ux, Initial residual = 8.61169e-09, Final residual = 8.61169e-09, No Iterations 0
smoothSolver:  Solving for Uy, Initial residual = 3.06828e-08, Final residual = 3.06828e-08, No Iterations 0
smoothSolver:  Solving for Uz, Initial residual = 2.3031e-08, Final residual = 2.3031e-08, No Iterations 0
GAMG:  Solving for p, Initial residual = 0.999979, Final residual = 0.0445476, No Iterations 1
GAMG:  Solving for p, Initial residual = 0.0538024, Final residual = 0.00201427, No Iterations 2
time step continuity errors : sum local = 2.15973e-07, global = -7.10389e-09, cumulative = 3.0819e-06
GAMG:  Solving for p, Initial residual = 0.999776, Final residual = 0.0445387, No Iterations 1
GAMG:  Solving for p, Initial residual = 0.0537969, Final residual = 7.8227e-07, No Iterations 11
time step continuity errors : sum local = 8.38761e-11, global = -4.73155e-12, cumulative = 3.08189e-06
PIMPLE: iteration 2
smoothSolver:  Solving for Ux, Initial residual = 0.00157303, Final residual = 1.53719e-08, No Iterations 2
smoothSolver:  Solving for Uy, Initial residual = 0.0100541, Final residual = 5.33654e-08, No Iterations 2
smoothSolver:  Solving for Uz, Initial residual = 0.00691363, Final residual = 4.73585e-08, No Iterations 2
GAMG:  Solving for p, Initial residual = 0.728055, Final residual = 0.0327321, No Iterations 1
GAMG:  Solving for p, Initial residual = 0.277769, Final residual = 0.0106021, No Iterations 2
time step continuity errors : sum local = 2.20918e-07, global = 7.38422e-09, cumulative = 3.08927e-06
GAMG:  Solving for p, Initial residual = 0.118396, Final residual = 0.00897907, No Iterations 1
GAMG:  Solving for p, Initial residual = 0.0243154, Final residual = 7.0804e-07, No Iterations 11
time step continuity errors : sum local = 9.51852e-12, global = 5.59366e-13, cumulative = 3.08928e-06
smoothSolver:  Solving for omega, Initial residual = 1.89946e-05, Final residual = 2.02085e-08, No Iterations 1
smoothSolver:  Solving for k, Initial residual = 0.000165933, Final residual = 1.65418e-07, No Iterations 1
ExecutionTime = 52.25 s  ClockTime = 53 s

Courant Number mean: 0.0201005 max: 0.499975
deltaT = 6.67129e-05
Time = 0.0999342

PIMPLE: iteration 1
smoothSolver:  Solving for Ux, Initial residual = 8.60853e-09, Final residual = 8.60853e-09, No Iterations 0
smoothSolver:  Solving for Uy, Initial residual = 3.06697e-08, Final residual = 3.06697e-08, No Iterations 0
smoothSolver:  Solving for Uz, Initial residual = 2.30234e-08, Final residual = 2.30234e-08, No Iterations 0
GAMG:  Solving for p, Initial residual = 0.999979, Final residual = 0.0445481, No Iterations 1
GAMG:  Solving for p, Initial residual = 0.0538035, Final residual = 0.00201427, No Iterations 2
time step continuity errors : sum local = 2.15995e-07, global = -7.10578e-09, cumulative = 3.08217e-06
GAMG:  Solving for p, Initial residual = 0.999776, Final residual = 0.0445391, No Iterations 1
GAMG:  Solving for p, Initial residual = 0.053798, Final residual = 7.82212e-07, No Iterations 11
time step continuity errors : sum local = 8.38785e-11, global = -4.73201e-12, cumulative = 3.08216e-06
PIMPLE: iteration 2
smoothSolver:  Solving for Ux, Initial residual = 0.00157291, Final residual = 1.53701e-08, No Iterations 2
smoothSolver:  Solving for Uy, Initial residual = 0.0100533, Final residual = 5.33541e-08, No Iterations 2
smoothSolver:  Solving for Uz, Initial residual = 0.00691369, Final residual = 4.73541e-08, No Iterations 2
GAMG:  Solving for p, Initial residual = 0.728043, Final residual = 0.0327321, No Iterations 1
GAMG:  Solving for p, Initial residual = 0.277762, Final residual = 0.0106015, No Iterations 2
time step continuity errors : sum local = 2.2094e-07, global = 7.38623e-09, cumulative = 3.08955e-06
GAMG:  Solving for p, Initial residual = 0.118397, Final residual = 0.00897889, No Iterations 1
GAMG:  Solving for p, Initial residual = 0.0243157, Final residual = 7.08015e-07, No Iterations 11
time step continuity errors : sum local = 9.51929e-12, global = 5.59426e-13, cumulative = 3.08955e-06
smoothSolver:  Solving for omega, Initial residual = 1.89828e-05, Final residual = 2.01969e-08, No Iterations 1
smoothSolver:  Solving for k, Initial residual = 0.000165851, Final residual = 1.65321e-07, No Iterations 1
ExecutionTime = 52.28 s  ClockTime = 53 s

Courant Number mean: 0.0201015 max: 0.499975
deltaT = 6.67163e-05
Time = 0.100001

PIMPLE: iteration 1
smoothSolver:  Solving for Ux, Initial residual = 8.60594e-09, Final residual = 8.60594e-09, No Iterations 0
smoothSolver:  Solving for Uy, Initial residual = 3.06573e-08, Final residual = 3.06573e-08, No Iterations 0
smoothSolver:  Solving for Uz, Initial residual = 2.30143e-08, Final residual = 2.30143e-08, No Iterations 0
GAMG:  Solving for p, Initial residual = 0.999979, Final residual = 0.0445486, No Iterations 1
GAMG:  Solving for p, Initial residual = 0.0538048, Final residual = 0.00201427, No Iterations 2
time step continuity errors : sum local = 2.16017e-07, global = -7.10759e-09, cumulative = 3.08244e-06
GAMG:  Solving for p, Initial residual = 0.999776, Final residual = 0.0445397, No Iterations 1
GAMG:  Solving for p, Initial residual = 0.0537993, Final residual = 7.82149e-07, No Iterations 11
time step continuity errors : sum local = 8.38804e-11, global = -4.73246e-12, cumulative = 3.08244e-06
PIMPLE: iteration 2
smoothSolver:  Solving for Ux, Initial residual = 0.00157279, Final residual = 1.53681e-08, No Iterations 2
smoothSolver:  Solving for Uy, Initial residual = 0.0100526, Final residual = 5.3343e-08, No Iterations 2
smoothSolver:  Solving for Uz, Initial residual = 0.00691376, Final residual = 4.73497e-08, No Iterations 2
GAMG:  Solving for p, Initial residual = 0.72803, Final residual = 0.0327321, No Iterations 1
GAMG:  Solving for p, Initial residual = 0.277754, Final residual = 0.010601, No Iterations 2
time step continuity errors : sum local = 2.20962e-07, global = 7.38812e-09, cumulative = 3.08983e-06
GAMG:  Solving for p, Initial residual = 0.118397, Final residual = 0.00897861, No Iterations 1
GAMG:  Solving for p, Initial residual = 0.0243156, Final residual = 7.0798e-07, No Iterations 11
time step continuity errors : sum local = 9.51997e-12, global = 5.5948e-13, cumulative = 3.08983e-06
smoothSolver:  Solving for omega, Initial residual = 1.8971e-05, Final residual = 2.01852e-08, No Iterations 1
smoothSolver:  Solving for k, Initial residual = 0.000165768, Final residual = 1.65224e-07, No Iterations 1
ExecutionTime = 52.32 s  ClockTime = 53 s

End

Finalising parallel run
[SOLVER] completed (exit code: 0)
[SOLVER] Reconstructing parallel results...
[RECONSTRUCT] Running: reconstructPar
/*---------------------------------------------------------------------------*\
| =========                 |                                                 |
| \\      /  F ield         | OpenFOAM: The Open Source CFD Toolbox           |
|  \\    /   O peration     | Version:  2506                                  |
|   \\  /    A nd           | Website:  www.openfoam.com                      |
|    \\/     M anipulation  |                                                 |
\*---------------------------------------------------------------------------*/
Build  : _615aae61-20250627 OPENFOAM=2506 version=2506
Arch   : "LSB;label=32;scalar=64"
Exec   : reconstructPar
Date   : Jan 24 2026
Time   : 00:16:31
Host   : Vortex-Eclipse
PID    : 228101
I/O    : uncollated
Case   : /home/reen/openfoam/Tutorials/Rotating_Setup_Case/OpenFOAM_GUI/WindTunnelGUI/runs/Run_1_20260124_001534/windTunnelCase
nProcs : 1
trapFpe: Floating point exception trapping enabled (FOAM_SIGFPE).
fileModificationChecking : Monitoring run-time modified files using timeStampMaster (fileModificationSkew 5, maxFileModificationPolls 20)
allowSystemOperations : Allowing user-supplied system call operations

// * * * * * * * * * * * * * * * * * * * * * * * * * * * * * * * * * * * * * //
Create time



Reconstructing fields
region=region0

Time = 0.00482481

Reconstructing FV fields

    Reconstructing volScalarFields

        k
        nut
        omega
        p

    Reconstructing volVectorFields

        U

    Reconstructing surfaceScalarFields

        phi

Reconstructing point fields

No point fields

No lagrangian fields

No FA fields

Time = 0.010055

Reconstructing FV fields

    Reconstructing volScalarFields

        k
        nut
        omega
        p

    Reconstructing volVectorFields

        U

    Reconstructing surfaceScalarFields

        phi

Reconstructing point fields

No point fields

No lagrangian fields

No FA fields

Time = 0.0153825

Reconstructing FV fields

    Reconstructing volScalarFields

        k
        nut
        omega
        p

    Reconstructing volVectorFields

        U

    Reconstructing surfaceScalarFields

        phi

Reconstructing point fields

No point fields

No lagrangian fields

No FA fields

Time = 0.0208336

Reconstructing FV fields

    Reconstructing volScalarFields

        k
        nut
        omega
        p

    Reconstructing volVectorFields

        U

    Reconstructing surfaceScalarFields

        phi

Reconstructing point fields

No point fields

No lagrangian fields

No FA fields

Time = 0.0264248

Reconstructing FV fields

    Reconstructing volScalarFields

        k
        nut
        omega
        p

    Reconstructing volVectorFields

        U

    Reconstructing surfaceScalarFields

        phi

Reconstructing point fields

No point fields

No lagrangian fields

No FA fields

Time = 0.0321923

Reconstructing FV fields

    Reconstructing volScalarFields

        k
        nut
        omega
        p

    Reconstructing volVectorFields

        U

    Reconstructing surfaceScalarFields

        phi

Reconstructing point fields

No point fields

No lagrangian fields

No FA fields

Time = 0.0381339

Reconstructing FV fields

    Reconstructing volScalarFields

        k
        nut
        omega
        p

    Reconstructing volVectorFields

        U

    Reconstructing surfaceScalarFields

        phi

Reconstructing point fields

No point fields

No lagrangian fields

No FA fields

Time = 0.0441603

Reconstructing FV fields

    Reconstructing volScalarFields

        k
        nut
        omega
        p

    Reconstructing volVectorFields

        U

    Reconstructing surfaceScalarFields

        phi

Reconstructing point fields

No point fields

No lagrangian fields

No FA fields

Time = 0.050258

Reconstructing FV fields

    Reconstructing volScalarFields

        k
        nut
        omega
        p

    Reconstructing volVectorFields

        U

    Reconstructing surfaceScalarFields

        phi

Reconstructing point fields

No point fields

No lagrangian fields

No FA fields

Time = 0.0564281

Reconstructing FV fields

    Reconstructing volScalarFields

        k
        nut
        omega
        p

    Reconstructing volVectorFields

        U

    Reconstructing surfaceScalarFields

        phi

Reconstructing point fields

No point fields

No lagrangian fields

No FA fields

Time = 0.0626737

Reconstructing FV fields

    Reconstructing volScalarFields

        k
        nut
        omega
        p

    Reconstructing volVectorFields

        U

    Reconstructing surfaceScalarFields

        phi

Reconstructing point fields

No point fields

No lagrangian fields

No FA fields

Time = 0.0689916

Reconstructing FV fields

    Reconstructing volScalarFields

        k
        nut
        omega
        p

    Reconstructing volVectorFields

        U

    Reconstructing surfaceScalarFields

        phi

Reconstructing point fields

No point fields

No lagrangian fields

No FA fields

Time = 0.0753772

Reconstructing FV fields

    Reconstructing volScalarFields

        k
        nut
        omega
        p

    Reconstructing volVectorFields

        U

    Reconstructing surfaceScalarFields

        phi

Reconstructing point fields

No point fields

No lagrangian fields

No FA fields

Time = 0.0818392

Reconstructing FV fields

    Reconstructing volScalarFields

        k
        nut
        omega
        p

    Reconstructing volVectorFields

        U

    Reconstructing surfaceScalarFields

        phi

Reconstructing point fields

No point fields

No lagrangian fields

No FA fields

Time = 0.0883877

Reconstructing FV fields

    Reconstructing volScalarFields

        k
        nut
        omega
        p

    Reconstructing volVectorFields

        U

    Reconstructing surfaceScalarFields

        phi

Reconstructing point fields

No point fields

No lagrangian fields

No FA fields

Time = 0.0950072

Reconstructing FV fields

    Reconstructing volScalarFields

        k
        nut
        omega
        p

    Reconstructing volVectorFields

        U

    Reconstructing surfaceScalarFields

        phi

Reconstructing point fields

No point fields

No lagrangian fields

No FA fields


End

[RECONSTRUCT] completed (exit code: 0)
