[WORKFLOW] Applying settings...
[SETTINGS] Updated controlDict: solver=pimpleFoam, endTime=1.0
[SETTINGS] Updated transportProperties: nu=1.5e-05
[SETTINGS] Updated turbulenceProperties: model=kOmegaSST
[WORKFLOW] Starting solver...
[SOLVER] Decomposing for parallel run...
[DECOMPOSE] Running: decomposePar -force
/*---------------------------------------------------------------------------*\
| =========                 |                                                 |
| \\      /  F ield         | OpenFOAM: The Open Source CFD Toolbox           |
|  \\    /   O peration     | Version:  2506                                  |
|   \\  /    A nd           | Website:  www.openfoam.com                      |
|    \\/     M anipulation  |                                                 |
\*---------------------------------------------------------------------------*/
Build  : _615aae61-20250627 OPENFOAM=2506 version=2506
Arch   : "LSB;label=32;scalar=64"
Exec   : decomposePar -force
Date   : Jan 24 2026
Time   : 18:56:48
Host   : Vortex-Eclipse
PID    : 243592
I/O    : uncollated
Case   : /home/reen/openfoam/Tutorials/Rotating_Setup_Case/OpenFOAM_GUI/WindTunnelGUI/runs/Run_1_20260124_185553/windTunnelCase
nProcs : 1
trapFpe: Floating point exception trapping enabled (FOAM_SIGFPE).
fileModificationChecking : Monitoring run-time modified files using timeStampMaster (fileModificationSkew 5, maxFileModificationPolls 20)
allowSystemOperations : Allowing user-supplied system call operations

// * * * * * * * * * * * * * * * * * * * * * * * * * * * * * * * * * * * * * //
Create time



Decomposing mesh

Create mesh

Calculating distribution of cells
Decomposition method scotch [12] (region region0)

Finished decomposition in 0.12 s

Calculating original mesh data

Distributing cells to processors

Distributing faces to processors

Distributing points to processors

Constructing processor meshes

Processor 0
    Number of cells = 3991
    Number of points = 854
    Number of faces shared with processor 1 = 99
    Number of faces shared with processor 2 = 156
    Number of faces shared with processor 3 = 142
    Number of faces shared with processor 4 = 6
    Number of faces shared with processor 5 = 43
    Number of processor patches = 5
    Number of processor faces = 446
    Number of boundary faces = 182

Processor 1
    Number of cells = 3971
    Number of points = 875
    Number of faces shared with processor 0 = 99
    Number of faces shared with processor 2 = 217
    Number of faces shared with processor 3 = 83
    Number of faces shared with processor 4 = 21
    Number of faces shared with processor 5 = 44
    Number of processor patches = 5
    Number of processor faces = 464
    Number of boundary faces = 266

Processor 2
    Number of cells = 3964
    Number of points = 922
    Number of faces shared with processor 0 = 156
    Number of faces shared with processor 1 = 217
    Number of faces shared with processor 3 = 74
    Number of faces shared with processor 4 = 51
    Number of faces shared with processor 5 = 15
    Number of faces shared with processor 9 = 37
    Number of faces shared with processor 10 = 54
    Number of processor patches = 7
    Number of processor faces = 604
    Number of boundary faces = 284

Processor 3
    Number of cells = 3968
    Number of points = 980
    Number of faces shared with processor 0 = 142
    Number of faces shared with processor 1 = 83
    Number of faces shared with processor 2 = 74
    Number of faces shared with processor 4 = 6
    Number of faces shared with processor 5 = 156
    Number of faces shared with processor 6 = 91
    Number of processor patches = 6
    Number of processor faces = 552
    Number of boundary faces = 550

Processor 4
    Number of cells = 3933
    Number of points = 928
    Number of faces shared with processor 0 = 6
    Number of faces shared with processor 1 = 21
    Number of faces shared with processor 2 = 51
    Number of faces shared with processor 3 = 6
    Number of faces shared with processor 5 = 189
    Number of faces shared with processor 6 = 141
    Number of faces shared with processor 10 = 96
    Number of processor patches = 7
    Number of processor faces = 510
    Number of boundary faces = 422

Processor 5
    Number of cells = 3916
    Number of points = 879
    Number of faces shared with processor 0 = 43
    Number of faces shared with processor 1 = 44
    Number of faces shared with processor 2 = 15
    Number of faces shared with processor 3 = 156
    Number of faces shared with processor 4 = 189
    Number of faces shared with processor 6 = 19
    Number of faces shared with processor 10 = 18
    Number of processor patches = 7
    Number of processor faces = 484
    Number of boundary faces = 282

Processor 6
    Number of cells = 3936
    Number of points = 969
    Number of faces shared with processor 3 = 91
    Number of faces shared with processor 4 = 141
    Number of faces shared with processor 5 = 19
    Number of faces shared with processor 7 = 203
    Number of faces shared with processor 8 = 43
    Number of faces shared with processor 10 = 34
    Number of faces shared with processor 11 = 34
    Number of processor patches = 7
    Number of processor faces = 565
    Number of boundary faces = 515

Processor 7
    Number of cells = 3960
    Number of points = 913
    Number of faces shared with processor 6 = 203
    Number of faces shared with processor 8 = 188
    Number of faces shared with processor 10 = 32
    Number of faces shared with processor 11 = 154
    Number of processor patches = 4
    Number of processor faces = 577
    Number of boundary faces = 273

Processor 8
    Number of cells = 3956
    Number of points = 850
    Number of faces shared with processor 6 = 43
    Number of faces shared with processor 7 = 188
    Number of faces shared with processor 10 = 61
    Number of faces shared with processor 11 = 122
    Number of processor patches = 4
    Number of processor faces = 414
    Number of boundary faces = 210

Processor 9
    Number of cells = 3931
    Number of points = 990
    Number of faces shared with processor 2 = 37
    Number of faces shared with processor 10 = 126
    Number of processor patches = 2
    Number of processor faces = 163
    Number of boundary faces = 1007

Processor 10
    Number of cells = 3986
    Number of points = 1044
    Number of faces shared with processor 2 = 54
    Number of faces shared with processor 4 = 96
    Number of faces shared with processor 5 = 18
    Number of faces shared with processor 6 = 34
    Number of faces shared with processor 7 = 32
    Number of faces shared with processor 8 = 61
    Number of faces shared with processor 9 = 126
    Number of faces shared with processor 11 = 128
    Number of processor patches = 8
    Number of processor faces = 549
    Number of boundary faces = 781

Processor 11
    Number of cells = 3913
    Number of points = 826
    Number of faces shared with processor 6 = 34
    Number of faces shared with processor 7 = 154
    Number of faces shared with processor 8 = 122
    Number of faces shared with processor 10 = 128
    Number of processor patches = 4
    Number of processor faces = 438
    Number of boundary faces = 126

Number of processor faces = 2883
Max number of cells = 3991 (0.984713% above average 3952.08)
Max number of processor patches = 8 (45.4545% above average 5.5)
Max number of faces between processors = 604 (25.7024% above average 480.5)

Time = 0

Processor 0: field transfer
Processor 1: field transfer
Processor 2: field transfer
Processor 3: field transfer
Processor 4: field transfer
Processor 5: field transfer
Processor 6: field transfer
Processor 7: field transfer
Processor 8: field transfer
Processor 9: field transfer
Processor 10: field transfer
Processor 11: field transfer

End

[DECOMPOSE] completed (exit code: 0)
[SOLVER] Running pimpleFoam...
[SOLVER] Running: mpirun -np 12 pimpleFoam -parallel
/*---------------------------------------------------------------------------*\
| =========                 |                                                 |
| \\      /  F ield         | OpenFOAM: The Open Source CFD Toolbox           |
|  \\    /   O peration     | Version:  2506                                  |
|   \\  /    A nd           | Website:  www.openfoam.com                      |
|    \\/     M anipulation  |                                                 |
\*---------------------------------------------------------------------------*/
Build  : _615aae61-20250627 OPENFOAM=2506 version=2506
Arch   : "LSB;label=32;scalar=64"
Exec   : pimpleFoam -parallel
Date   : Jan 24 2026
Time   : 18:56:49
Host   : Vortex-Eclipse
PID    : 245073
I/O    : uncollated
Case   : /home/reen/openfoam/Tutorials/Rotating_Setup_Case/OpenFOAM_GUI/WindTunnelGUI/runs/Run_1_20260124_185553/windTunnelCase
nProcs : 12
Hosts  :
(
    (Vortex-Eclipse 12)
)
Pstream initialized with:
    node communication : off [type=host] (12 ranks, 1 nodes)
    topology controls  : none
    consensus exchange : 0 (tuning: 0)
    exchange algorithm : 0
    commsType          : nonBlocking
    polling iterations : 0
trapFpe: Floating point exception trapping enabled (FOAM_SIGFPE).
fileModificationChecking : Monitoring run-time modified files using timeStampMaster (fileModificationSkew 5, maxFileModificationPolls 20)
allowSystemOperations : Allowing user-supplied system call operations

// * * * * * * * * * * * * * * * * * * * * * * * * * * * * * * * * * * * * * //
Create time

Create mesh for time = 0


PIMPLE: no residual control data found. Calculations will employ 2 corrector loops

Reading field p

Reading field U

Reading/calculating face flux field phi

Selecting incompressible transport model Newtonian
Selecting turbulence model type RAS
Selecting RAS turbulence model kOmegaSST
Selecting patchDistMethod meshWave
RAS
{
    RASModel        kOmegaSST;
    turbulence      on;
    printCoeffs     on;
    alphaK1         0.85;
    alphaK2         1;
    alphaOmega1     0.5;
    alphaOmega2     0.856;
    gamma1          0.555556;
    gamma2          0.44;
    beta1           0.075;
    beta2           0.0828;
    betaStar        0.09;
    a1              0.31;
    b1              1;
    c1              10;
    F3              false;
    decayControl    false;
    kInf            0;
    omegaInf        0;
}

No MRF models present

No finite volume options present
Courant Number mean: 1.30588e-05 max: 0.00273856
forces forces1:
    rho: rhoInf
    Freestream density (rhoInf) set to 1.225
    Not including porosity effects

Courant Number mean: 1.30588e-05 max: 0.00273856

Starting time loop

Courant Number mean: 1.30588e-05 max: 0.00273856
deltaT = 1.2e-05
Time = 1.2e-05

PIMPLE: iteration 1
smoothSolver:  Solving for Ux, Initial residual = 1, Final residual = 2.38393e-10, No Iterations 1
smoothSolver:  Solving for Uy, Initial residual = 0, Final residual = 0, No Iterations 0
smoothSolver:  Solving for Uz, Initial residual = 0, Final residual = 0, No Iterations 0
GAMG:  Solving for p, Initial residual = 1, Final residual = 0.0547819, No Iterations 6
GAMG:  Solving for p, Initial residual = 0.152115, Final residual = 0.00641468, No Iterations 1
time step continuity errors : sum local = 4.4231e-05, global = -9.03136e-08, cumulative = -9.03136e-08
GAMG:  Solving for p, Initial residual = 0.975729, Final residual = 0.0534314, No Iterations 6
GAMG:  Solving for p, Initial residual = 0.152099, Final residual = 8.6874e-07, No Iterations 10
time step continuity errors : sum local = 5.99021e-09, global = 3.09534e-10, cumulative = -9.0004e-08
PIMPLE: iteration 2
smoothSolver:  Solving for Ux, Initial residual = 0.999982, Final residual = 7.4415e-08, No Iterations 2
smoothSolver:  Solving for Uy, Initial residual = 0.999799, Final residual = 7.38094e-08, No Iterations 2
smoothSolver:  Solving for Uz, Initial residual = 0.999799, Final residual = 8.61335e-08, No Iterations 2
GAMG:  Solving for p, Initial residual = 0.0154632, Final residual = 0.000774631, No Iterations 1
GAMG:  Solving for p, Initial residual = 0.00229746, Final residual = 0.000212855, No Iterations 1
time step continuity errors : sum local = 1.6522e-06, global = -1.33848e-07, cumulative = -2.23852e-07
GAMG:  Solving for p, Initial residual = 0.000830866, Final residual = 4.83332e-05, No Iterations 2
GAMG:  Solving for p, Initial residual = 0.000608311, Final residual = 8.79507e-07, No Iterations 5
time step continuity errors : sum local = 6.88935e-09, global = -4.63027e-10, cumulative = -2.24315e-07
smoothSolver:  Solving for omega, Initial residual = 0.00104027, Final residual = 2.57665e-07, No Iterations 1
smoothSolver:  Solving for k, Initial residual = 1, Final residual = 7.89251e-08, No Iterations 2
ExecutionTime = 0.06 s  ClockTime = 1 s

forces forces1 write:
    Sum of forces
        Total    : (23141.5 6.70435 8923.84)
        Pressure : (23141.5 6.70471 8923.85)
        Viscous  : (0.0581143 -0.00035959 -0.00827358)
    Sum of moments
        Total    : (-4446.09 2018.11 11575.2)
        Pressure : (-4446.09 2018.11 11575.2)
        Viscous  : (0.00376373 0.000219024 0.028927)
Courant Number mean: 0.00363186 max: 0.176675
deltaT = 1.44e-05
Time = 2.64e-05

PIMPLE: iteration 1
smoothSolver:  Solving for Ux, Initial residual = 0.000387736, Final residual = 6.01101e-12, No Iterations 1
smoothSolver:  Solving for Uy, Initial residual = 5.97364e-05, Final residual = 8.69914e-13, No Iterations 1
smoothSolver:  Solving for Uz, Initial residual = 5.93045e-05, Final residual = 8.69933e-13, No Iterations 1
GAMG:  Solving for p, Initial residual = 0.99879, Final residual = 0.0496112, No Iterations 1
GAMG:  Solving for p, Initial residual = 0.0635314, Final residual = 0.00395979, No Iterations 2
time step continuity errors : sum local = 5.12871e-06, global = 3.70678e-07, cumulative = 1.46363e-07
GAMG:  Solving for p, Initial residual = 0.998688, Final residual = 0.0496063, No Iterations 1
GAMG:  Solving for p, Initial residual = 0.0635237, Final residual = 5.05671e-07, No Iterations 12
time step continuity errors : sum local = 6.54959e-10, global = 4.34147e-11, cumulative = 1.46407e-07
PIMPLE: iteration 2
smoothSolver:  Solving for Ux, Initial residual = 0.861376, Final residual = 4.26522e-08, No Iterations 2
smoothSolver:  Solving for Uy, Initial residual = 0.35029, Final residual = 1.50502e-08, No Iterations 2
smoothSolver:  Solving for Uz, Initial residual = 0.347581, Final residual = 1.91833e-08, No Iterations 2
GAMG:  Solving for p, Initial residual = 0.0412382, Final residual = 0.00324317, No Iterations 3
GAMG:  Solving for p, Initial residual = 0.602916, Final residual = 0.0256408, No Iterations 1
time step continuity errors : sum local = 5.7217e-05, global = 2.45821e-06, cumulative = 2.60461e-06
GAMG:  Solving for p, Initial residual = 0.156782, Final residual = 0.014416, No Iterations 1
GAMG:  Solving for p, Initial residual = 0.0757077, Final residual = 4.98008e-07, No Iterations 12
time step continuity errors : sum local = 3.4785e-10, global = 2.0999e-11, cumulative = 2.60463e-06
smoothSolver:  Solving for omega, Initial residual = 0.00112837, Final residual = 3.24527e-07, No Iterations 1
smoothSolver:  Solving for k, Initial residual = 0.36683, Final residual = 2.61114e-08, No Iterations 2
ExecutionTime = 0.09 s  ClockTime = 1 s

forces forces1 write:
    Sum of forces
        Total    : (-387.551 0.382199 -168.208)
        Pressure : (-387.609 0.382525 -168.2)
        Viscous  : (0.0577607 -0.000326392 -0.00802429)
    Sum of moments
        Total    : (84.5224 -35.1714 -198.293)
        Pressure : (84.5187 -35.1716 -198.321)
        Viscous  : (0.00365779 0.000247748 0.0287431)
Courant Number mean: 0.0043861 max: 0.208013
deltaT = 1.728e-05
Time = 4.368e-05

PIMPLE: iteration 1
smoothSolver:  Solving for Ux, Initial residual = 9.51311e-06, Final residual = 1.8197e-13, No Iterations 1
smoothSolver:  Solving for Uy, Initial residual = 7.63705e-06, Final residual = 1.33174e-13, No Iterations 1
smoothSolver:  Solving for Uz, Initial residual = 7.12257e-06, Final residual = 1.15379e-13, No Iterations 1
GAMG:  Solving for p, Initial residual = 0.999863, Final residual = 0.0466032, No Iterations 1
GAMG:  Solving for p, Initial residual = 0.0564437, Final residual = 0.00356298, No Iterations 2
time step continuity errors : sum local = 4.39662e-06, global = 3.16657e-07, cumulative = 2.92129e-06
GAMG:  Solving for p, Initial residual = 0.999639, Final residual = 0.0465929, No Iterations 1
GAMG:  Solving for p, Initial residual = 0.0564369, Final residual = 4.53598e-07, No Iterations 12
time step continuity errors : sum local = 5.5974e-10, global = 3.71011e-11, cumulative = 2.92133e-06
PIMPLE: iteration 2
smoothSolver:  Solving for Ux, Initial residual = 0.301883, Final residual = 2.29351e-08, No Iterations 2
smoothSolver:  Solving for Uy, Initial residual = 0.166053, Final residual = 1.00093e-08, No Iterations 2
smoothSolver:  Solving for Uz, Initial residual = 0.162237, Final residual = 1.02848e-08, No Iterations 2
GAMG:  Solving for p, Initial residual = 0.483194, Final residual = 0.0218507, No Iterations 1
GAMG:  Solving for p, Initial residual = 0.123628, Final residual = 0.00697515, No Iterations 2
time step continuity errors : sum local = 5.79158e-06, global = -4.23137e-07, cumulative = 2.49819e-06
GAMG:  Solving for p, Initial residual = 0.177625, Final residual = 0.00954911, No Iterations 1
GAMG:  Solving for p, Initial residual = 0.026202, Final residual = 5.61531e-07, No Iterations 11
time step continuity errors : sum local = 2.04277e-10, global = -1.12845e-11, cumulative = 2.49818e-06
smoothSolver:  Solving for omega, Initial residual = 0.00128974, Final residual = 4.5541e-07, No Iterations 1
smoothSolver:  Solving for k, Initial residual = 0.26538, Final residual = 2.86641e-08, No Iterations 2
ExecutionTime = 0.13 s  ClockTime = 1 s

forces forces1 write:
    Sum of forces
        Total    : (-102.088 -0.487486 -56.8584)
        Pressure : (-102.146 -0.487162 -56.8506)
        Viscous  : (0.0575397 -0.000324631 -0.00777118)
    Sum of moments
        Total    : (29.2608 -9.69176 -53.6972)
        Pressure : (29.2573 -9.69203 -53.7259)
        Viscous  : (0.00356037 0.000266537 0.0286368)
Courant Number mean: 0.00526045 max: 0.241971
deltaT = 2.0736e-05
Time = 6.4416e-05

PIMPLE: iteration 1
smoothSolver:  Solving for Ux, Initial residual = 3.87228e-06, Final residual = 9.16638e-14, No Iterations 1
smoothSolver:  Solving for Uy, Initial residual = 2.60957e-06, Final residual = 5.63403e-14, No Iterations 1
smoothSolver:  Solving for Uz, Initial residual = 2.50581e-06, Final residual = 5.2497e-14, No Iterations 1
GAMG:  Solving for p, Initial residual = 0.999941, Final residual = 0.0451, No Iterations 1
GAMG:  Solving for p, Initial residual = 0.0540788, Final residual = 0.00334006, No Iterations 2
time step continuity errors : sum local = 4.42155e-06, global = 3.21939e-07, cumulative = 2.82012e-06
GAMG:  Solving for p, Initial residual = 0.999713, Final residual = 0.04509, No Iterations 1
GAMG:  Solving for p, Initial residual = 0.0540724, Final residual = 4.25917e-07, No Iterations 12
time step continuity errors : sum local = 5.63839e-10, global = 3.76409e-11, cumulative = 2.82016e-06
PIMPLE: iteration 2
smoothSolver:  Solving for Ux, Initial residual = 0.225558, Final residual = 2.60723e-08, No Iterations 2
smoothSolver:  Solving for Uy, Initial residual = 0.11422, Final residual = 1.04487e-08, No Iterations 2
smoothSolver:  Solving for Uz, Initial residual = 0.111814, Final residual = 1.10936e-08, No Iterations 2
GAMG:  Solving for p, Initial residual = 0.470588, Final residual = 0.0210512, No Iterations 1
GAMG:  Solving for p, Initial residual = 0.115459, Final residual = 0.00697344, No Iterations 2
time step continuity errors : sum local = 4.89664e-06, global = -3.57708e-07, cumulative = 2.46245e-06
GAMG:  Solving for p, Initial residual = 0.186698, Final residual = 0.00987225, No Iterations 1
GAMG:  Solving for p, Initial residual = 0.0268584, Final residual = 5.77251e-07, No Iterations 11
time step continuity errors : sum local = 1.73041e-10, global = -9.4191e-12, cumulative = 2.46244e-06
smoothSolver:  Solving for omega, Initial residual = 0.00148108, Final residual = 6.41434e-07, No Iterations 1
smoothSolver:  Solving for k, Initial residual = 0.192802, Final residual = 3.22135e-08, No Iterations 2
ExecutionTime = 0.16 s  ClockTime = 1 s

forces forces1 write:
    Sum of forces
        Total    : (-33.4644 -0.313798 -27.5743)
        Pressure : (-33.5219 -0.313505 -27.5668)
        Viscous  : (0.0574359 -0.000292951 -0.00754783)
    Sum of moments
        Total    : (13.6933 -3.50328 -17.7263)
        Pressure : (13.6899 -3.50357 -17.7548)
        Viscous  : (0.00346967 0.000282505 0.0285853)
Courant Number mean: 0.00630961 max: 0.281435
deltaT = 2.442e-05
Time = 8.8836e-05

PIMPLE: iteration 1
smoothSolver:  Solving for Ux, Initial residual = 2.55267e-06, Final residual = 7.36432e-14, No Iterations 1
smoothSolver:  Solving for Uy, Initial residual = 1.76633e-06, Final residual = 4.83636e-14, No Iterations 1
smoothSolver:  Solving for Uz, Initial residual = 1.71887e-06, Final residual = 4.47302e-14, No Iterations 1
GAMG:  Solving for p, Initial residual = 0.999956, Final residual = 0.0439496, No Iterations 1
GAMG:  Solving for p, Initial residual = 0.0524396, Final residual = 0.00316101, No Iterations 2
time step continuity errors : sum local = 4.51592e-06, global = 3.3089e-07, cumulative = 2.79333e-06
GAMG:  Solving for p, Initial residual = 0.999729, Final residual = 0.0439398, No Iterations 1
GAMG:  Solving for p, Initial residual = 0.0524334, Final residual = 9.89405e-07, No Iterations 11
time step continuity errors : sum local = 1.41352e-09, global = 6.35246e-11, cumulative = 2.79339e-06
PIMPLE: iteration 2
smoothSolver:  Solving for Ux, Initial residual = 0.188257, Final residual = 3.13602e-08, No Iterations 2
smoothSolver:  Solving for Uy, Initial residual = 0.098568, Final residual = 1.32269e-08, No Iterations 2
smoothSolver:  Solving for Uz, Initial residual = 0.0961629, Final residual = 1.38074e-08, No Iterations 2
GAMG:  Solving for p, Initial residual = 0.493191, Final residual = 0.021602, No Iterations 1
GAMG:  Solving for p, Initial residual = 0.120863, Final residual = 0.00715604, No Iterations 2
time step continuity errors : sum local = 4.84595e-06, global = -3.5664e-07, cumulative = 2.43675e-06
GAMG:  Solving for p, Initial residual = 0.198552, Final residual = 0.0104792, No Iterations 1
GAMG:  Solving for p, Initial residual = 0.0286486, Final residual = 6.14346e-07, No Iterations 11
time step continuity errors : sum local = 1.69919e-10, global = -9.23441e-12, cumulative = 2.43674e-06
smoothSolver:  Solving for omega, Initial residual = 0.00166934, Final residual = 8.69403e-07, No Iterations 1
smoothSolver:  Solving for k, Initial residual = 0.149407, Final residual = 3.75129e-08, No Iterations 2
ExecutionTime = 0.2 s  ClockTime = 1 s

forces forces1 write:
    Sum of forces
        Total    : (-0.891346 -0.243328 -13.8843)
        Pressure : (-0.948754 -0.243081 -13.877)
        Viscous  : (0.0574079 -0.000247186 -0.0073394)
    Sum of moments
        Total    : (6.65264 -0.590482 -1.01347)
        Pressure : (6.64926 -0.59078 -1.04203)
        Viscous  : (0.00338336 0.000297422 0.0285644)
Courant Number mean: 0.0074276 max: 0.321562
deltaT = 2.82171e-05
Time = 0.000117053

PIMPLE: iteration 1
smoothSolver:  Solving for Ux, Initial residual = 1.89769e-06, Final residual = 6.51679e-14, No Iterations 1
smoothSolver:  Solving for Uy, Initial residual = 1.43766e-06, Final residual = 4.79029e-14, No Iterations 1
smoothSolver:  Solving for Uz, Initial residual = 1.39812e-06, Final residual = 4.42415e-14, No Iterations 1
GAMG:  Solving for p, Initial residual = 0.999964, Final residual = 0.0430715, No Iterations 1
GAMG:  Solving for p, Initial residual = 0.0512224, Final residual = 0.00301171, No Iterations 2
time step continuity errors : sum local = 4.61713e-06, global = 3.40049e-07, cumulative = 2.77679e-06
GAMG:  Solving for p, Initial residual = 0.999738, Final residual = 0.043062, No Iterations 1
GAMG:  Solving for p, Initial residual = 0.0512163, Final residual = 9.43271e-07, No Iterations 11
time step continuity errors : sum local = 1.44612e-09, global = 6.47628e-11, cumulative = 2.77686e-06
PIMPLE: iteration 2
smoothSolver:  Solving for Ux, Initial residual = 0.16242, Final residual = 3.73423e-08, No Iterations 2
smoothSolver:  Solving for Uy, Initial residual = 0.0887121, Final residual = 1.66186e-08, No Iterations 2
smoothSolver:  Solving for Uz, Initial residual = 0.0863207, Final residual = 1.70492e-08, No Iterations 2
GAMG:  Solving for p, Initial residual = 0.514732, Final residual = 0.0221324, No Iterations 1
GAMG:  Solving for p, Initial residual = 0.126413, Final residual = 0.00731641, No Iterations 2
time step continuity errors : sum local = 4.88036e-06, global = -3.60258e-07, cumulative = 2.4166e-06
GAMG:  Solving for p, Initial residual = 0.208734, Final residual = 0.0110043, No Iterations 1
GAMG:  Solving for p, Initial residual = 0.030238, Final residual = 6.46896e-07, No Iterations 11
time step continuity errors : sum local = 1.69908e-10, global = -9.23048e-12, cumulative = 2.41659e-06
smoothSolver:  Solving for omega, Initial residual = 0.00184337, Final residual = 1.33515e-09, No Iterations 2
smoothSolver:  Solving for k, Initial residual = 0.120925, Final residual = 4.39438e-08, No Iterations 2
ExecutionTime = 0.24 s  ClockTime = 1 s

forces forces1 write:
    Sum of forces
        Total    : (16.2838 -0.171978 -6.47122)
        Pressure : (16.2264 -0.171784 -6.46407)
        Viscous  : (0.0574572 -0.000193609 -0.00714671)
    Sum of moments
        Total    : (2.91531 0.9572 7.79287)
        Pressure : (2.91201 0.956886 7.76429)
        Viscous  : (0.00329871 0.000314838 0.0285776)
Courant Number mean: 0.00857941 max: 0.36474
deltaT = 3.20852e-05
Time = 0.000149138

PIMPLE: iteration 1
smoothSolver:  Solving for Ux, Initial residual = 1.5434e-06, Final residual = 6.18019e-14, No Iterations 1
smoothSolver:  Solving for Uy, Initial residual = 1.27013e-06, Final residual = 5.00338e-14, No Iterations 1
smoothSolver:  Solving for Uz, Initial residual = 1.2319e-06, Final residual = 4.63981e-14, No Iterations 1
GAMG:  Solving for p, Initial residual = 0.999969, Final residual = 0.0423844, No Iterations 1
GAMG:  Solving for p, Initial residual = 0.0502821, Final residual = 0.00288414, No Iterations 2
time step continuity errors : sum local = 4.71004e-06, global = 3.4818e-07, cumulative = 2.76477e-06
GAMG:  Solving for p, Initial residual = 0.999743, Final residual = 0.0423749, No Iterations 1
GAMG:  Solving for p, Initial residual = 0.0502762, Final residual = 9.03742e-07, No Iterations 11
time step continuity errors : sum local = 1.47591e-09, global = 6.5938e-11, cumulative = 2.76484e-06
PIMPLE: iteration 2
smoothSolver:  Solving for Ux, Initial residual = 0.143301, Final residual = 4.39414e-08, No Iterations 2
smoothSolver:  Solving for Uy, Initial residual = 0.0816261, Final residual = 2.05483e-08, No Iterations 2
smoothSolver:  Solving for Uz, Initial residual = 0.0792282, Final residual = 2.08247e-08, No Iterations 2
GAMG:  Solving for p, Initial residual = 0.533962, Final residual = 0.0226158, No Iterations 1
GAMG:  Solving for p, Initial residual = 0.131895, Final residual = 0.00745685, No Iterations 2
time step continuity errors : sum local = 4.93315e-06, global = -3.65335e-07, cumulative = 2.3995e-06
GAMG:  Solving for p, Initial residual = 0.21767, Final residual = 0.0114689, No Iterations 1
GAMG:  Solving for p, Initial residual = 0.0316685, Final residual = 6.76044e-07, No Iterations 11
time step continuity errors : sum local = 1.70606e-10, global = -9.25986e-12, cumulative = 2.39949e-06
smoothSolver:  Solving for omega, Initial residual = 0.00199842, Final residual = 2.06269e-09, No Iterations 2
smoothSolver:  Solving for k, Initial residual = 0.100757, Final residual = 5.15357e-08, No Iterations 2
ExecutionTime = 0.28 s  ClockTime = 1 s

forces forces1 write:
    Sum of forces
        Total    : (25.8365 -0.130909 -2.13036)
        Pressure : (25.7789 -0.130768 -2.1234)
        Viscous  : (0.0575543 -0.000140565 -0.00696576)
    Sum of moments
        Total    : (0.739332 1.83056 12.704)
        Pressure : (0.736112 1.83022 12.6754)
        Viscous  : (0.00321932 0.000335371 0.0286122)
Courant Number mean: 0.00975222 max: 0.407614
deltaT = 3.60209e-05
Time = 0.000185159

PIMPLE: iteration 1
smoothSolver:  Solving for Ux, Initial residual = 1.35899e-06, Final residual = 6.18183e-14, No Iterations 1
smoothSolver:  Solving for Uy, Initial residual = 1.18354e-06, Final residual = 5.37393e-14, No Iterations 1
smoothSolver:  Solving for Uz, Initial residual = 1.14426e-06, Final residual = 5.02413e-14, No Iterations 1
GAMG:  Solving for p, Initial residual = 0.999973, Final residual = 0.0418289, No Iterations 1
GAMG:  Solving for p, Initial residual = 0.0495529, Final residual = 0.0027736, No Iterations 2
time step continuity errors : sum local = 4.7926e-06, global = 3.55233e-07, cumulative = 2.75472e-06
GAMG:  Solving for p, Initial residual = 0.999748, Final residual = 0.0418196, No Iterations 1
GAMG:  Solving for p, Initial residual = 0.049547, Final residual = 8.69424e-07, No Iterations 11
time step continuity errors : sum local = 1.50233e-09, global = 6.70019e-11, cumulative = 2.75479e-06
PIMPLE: iteration 2
smoothSolver:  Solving for Ux, Initial residual = 0.128587, Final residual = 5.10688e-08, No Iterations 2
smoothSolver:  Solving for Uy, Initial residual = 0.0762219, Final residual = 2.5023e-08, No Iterations 2
smoothSolver:  Solving for Uz, Initial residual = 0.0738091, Final residual = 2.50728e-08, No Iterations 2
GAMG:  Solving for p, Initial residual = 0.551103, Final residual = 0.0230603, No Iterations 1
GAMG:  Solving for p, Initial residual = 0.137256, Final residual = 0.00758351, No Iterations 2
time step continuity errors : sum local = 4.99114e-06, global = -3.70417e-07, cumulative = 2.38437e-06
GAMG:  Solving for p, Initial residual = 0.225628, Final residual = 0.0118855, No Iterations 1
GAMG:  Solving for p, Initial residual = 0.0329785, Final residual = 7.02646e-07, No Iterations 11
time step continuity errors : sum local = 1.71525e-10, global = -9.30082e-12, cumulative = 2.38437e-06
smoothSolver:  Solving for omega, Initial residual = 0.00213352, Final residual = 3.04833e-09, No Iterations 2
smoothSolver:  Solving for k, Initial residual = 0.0857439, Final residual = 6.03458e-08, No Iterations 2
ExecutionTime = 0.31 s  ClockTime = 1 s

forces forces1 write:
    Sum of forces
        Total    : (31.2806 -0.0997175 0.481946)
        Pressure : (31.2229 -0.0996173 0.48873)
        Viscous  : (0.0576656 -0.000100266 -0.00678426)
    Sum of moments
        Total    : (-0.561514 2.33585 15.5234)
        Pressure : (-0.564656 2.33549 15.4947)
        Viscous  : (0.00314175 0.000357622 0.0286551)
Courant Number mean: 0.010945 max: 0.449356
deltaT = 4.00289e-05
Time = 0.000225188

PIMPLE: iteration 1
smoothSolver:  Solving for Ux, Initial residual = 1.27808e-06, Final residual = 6.48171e-14, No Iterations 1
smoothSolver:  Solving for Uy, Initial residual = 1.14494e-06, Final residual = 5.85079e-14, No Iterations 1
smoothSolver:  Solving for Uz, Initial residual = 1.10309e-06, Final residual = 5.5228e-14, No Iterations 1
GAMG:  Solving for p, Initial residual = 0.999975, Final residual = 0.0413753, No Iterations 1
GAMG:  Solving for p, Initial residual = 0.0489794, Final residual = 0.00267698, No Iterations 2
time step continuity errors : sum local = 4.86608e-06, global = 3.61333e-07, cumulative = 2.7457e-06
GAMG:  Solving for p, Initial residual = 0.999752, Final residual = 0.0413662, No Iterations 1
GAMG:  Solving for p, Initial residual = 0.0489737, Final residual = 8.39345e-07, No Iterations 11
time step continuity errors : sum local = 1.52574e-09, global = 6.79697e-11, cumulative = 2.74577e-06
PIMPLE: iteration 2
smoothSolver:  Solving for Ux, Initial residual = 0.116944, Final residual = 5.87371e-08, No Iterations 2
smoothSolver:  Solving for Uy, Initial residual = 0.0719329, Final residual = 3.01069e-08, No Iterations 2
smoothSolver:  Solving for Uz, Initial residual = 0.0695156, Final residual = 2.98713e-08, No Iterations 2
GAMG:  Solving for p, Initial residual = 0.566528, Final residual = 0.0234714, No Iterations 1
GAMG:  Solving for p, Initial residual = 0.142482, Final residual = 0.00769878, No Iterations 2
time step continuity errors : sum local = 5.04853e-06, global = -3.75371e-07, cumulative = 2.3704e-06
GAMG:  Solving for p, Initial residual = 0.232725, Final residual = 0.0122591, No Iterations 1
GAMG:  Solving for p, Initial residual = 0.0341802, Final residual = 7.27007e-07, No Iterations 11
time step continuity errors : sum local = 1.72448e-10, global = -9.33811e-12, cumulative = 2.37039e-06
smoothSolver:  Solving for omega, Initial residual = 0.0022485, Final residual = 4.36272e-09, No Iterations 2
smoothSolver:  Solving for k, Initial residual = 0.0741131, Final residual = 6.99917e-08, No Iterations 2
ExecutionTime = 0.35 s  ClockTime = 1 s

forces forces1 write:
    Sum of forces
        Total    : (34.3805 -0.0787057 2.11906)
        Pressure : (34.3227 -0.0786358 2.12566)
        Viscous  : (0.0577898 -6.98554e-05 -0.00660501)
    Sum of moments
        Total    : (-1.36556 2.6317 17.1337)
        Pressure : (-1.36862 2.63132 17.105)
        Viscous  : (0.00306458 0.000381384 0.0286973)
Courant Number mean: 0.0121592 max: 0.49003
deltaT = 4.08434e-05
Time = 0.000266031

PIMPLE: iteration 1
smoothSolver:  Solving for Ux, Initial residual = 1.16817e-06, Final residual = 6.03005e-14, No Iterations 1
smoothSolver:  Solving for Uy, Initial residual = 1.05332e-06, Final residual = 5.52974e-14, No Iterations 1
smoothSolver:  Solving for Uz, Initial residual = 1.0123e-06, Final residual = 5.26209e-14, No Iterations 1
GAMG:  Solving for p, Initial residual = 0.999979, Final residual = 0.0410031, No Iterations 1
GAMG:  Solving for p, Initial residual = 0.0485204, Final residual = 0.00259223, No Iterations 2
time step continuity errors : sum local = 4.56644e-06, global = 3.3945e-07, cumulative = 2.70984e-06
GAMG:  Solving for p, Initial residual = 0.999757, Final residual = 0.0409941, No Iterations 1
GAMG:  Solving for p, Initial residual = 0.0485148, Final residual = 8.12927e-07, No Iterations 11
time step continuity errors : sum local = 1.43207e-09, global = 6.37916e-11, cumulative = 2.7099e-06
PIMPLE: iteration 2
smoothSolver:  Solving for Ux, Initial residual = 0.107051, Final residual = 5.54057e-08, No Iterations 2
smoothSolver:  Solving for Uy, Initial residual = 0.0677597, Final residual = 2.94363e-08, No Iterations 2
smoothSolver:  Solving for Uz, Initial residual = 0.0653491, Final residual = 2.90301e-08, No Iterations 2
GAMG:  Solving for p, Initial residual = 0.579162, Final residual = 0.0237974, No Iterations 1
GAMG:  Solving for p, Initial residual = 0.146915, Final residual = 0.00777266, No Iterations 2
time step continuity errors : sum local = 4.69252e-06, global = -3.49204e-07, cumulative = 2.3607e-06
GAMG:  Solving for p, Initial residual = 0.236827, Final residual = 0.0124938, No Iterations 1
GAMG:  Solving for p, Initial residual = 0.0349883, Final residual = 7.44782e-07, No Iterations 11
time step continuity errors : sum local = 1.59881e-10, global = -8.66418e-12, cumulative = 2.36069e-06
smoothSolver:  Solving for omega, Initial residual = 0.00217276, Final residual = 4.51198e-09, No Iterations 2
smoothSolver:  Solving for k, Initial residual = 0.0601354, Final residual = 6.11478e-08, No Iterations 2
ExecutionTime = 0.38 s  ClockTime = 1 s

forces forces1 write:
    Sum of forces
        Total    : (35.5307 -0.0699683 2.93204)
        Pressure : (35.4728 -0.0699284 2.93847)
        Viscous  : (0.0579244 -3.98693e-05 -0.00642968)
    Sum of moments
        Total    : (-1.76194 2.75404 17.7485)
        Pressure : (-1.76493 2.75363 17.7197)
        Viscous  : (0.00298798 0.000408349 0.0287518)
Courant Number mean: 0.0124032 max: 0.491051
deltaT = 4.15877e-05
Time = 0.000307619

PIMPLE: iteration 1
smoothSolver:  Solving for Ux, Initial residual = 1.12948e-06, Final residual = 5.86212e-14, No Iterations 1
smoothSolver:  Solving for Uy, Initial residual = 1.01463e-06, Final residual = 5.39806e-14, No Iterations 1
smoothSolver:  Solving for Uz, Initial residual = 9.7377e-07, Final residual = 9.7377e-07, No Iterations 0
GAMG:  Solving for p, Initial residual = 0.999981, Final residual = 0.0406897, No Iterations 1
GAMG:  Solving for p, Initial residual = 0.0481416, Final residual = 0.0025164, No Iterations 2
time step continuity errors : sum local = 4.30293e-06, global = 3.19987e-07, cumulative = 2.68067e-06
GAMG:  Solving for p, Initial residual = 0.99976, Final residual = 0.0406808, No Iterations 1
GAMG:  Solving for p, Initial residual = 0.048136, Final residual = 7.89192e-07, No Iterations 11
time step continuity errors : sum local = 1.3495e-09, global = 6.01346e-11, cumulative = 2.68073e-06
PIMPLE: iteration 2
smoothSolver:  Solving for Ux, Initial residual = 0.0995092, Final residual = 5.29075e-08, No Iterations 2
smoothSolver:  Solving for Uy, Initial residual = 0.0646527, Final residual = 2.89975e-08, No Iterations 2
smoothSolver:  Solving for Uz, Initial residual = 0.0622539, Final residual = 2.84785e-08, No Iterations 2
GAMG:  Solving for p, Initial residual = 0.591229, Final residual = 0.0241164, No Iterations 1
GAMG:  Solving for p, Initial residual = 0.15147, Final residual = 0.00784929, No Iterations 2
time step continuity errors : sum local = 4.41451e-06, global = -3.28735e-07, cumulative = 2.352e-06
GAMG:  Solving for p, Initial residual = 0.241161, Final residual = 0.0127445, No Iterations 1
GAMG:  Solving for p, Initial residual = 0.035891, Final residual = 7.64693e-07, No Iterations 11
time step continuity errors : sum local = 1.50065e-10, global = -8.13675e-12, cumulative = 2.35199e-06
smoothSolver:  Solving for omega, Initial residual = 0.00209726, Final residual = 4.64388e-09, No Iterations 2
smoothSolver:  Solving for k, Initial residual = 0.0502034, Final residual = 5.47166e-08, No Iterations 2
ExecutionTime = 0.42 s  ClockTime = 1 s

forces forces1 write:
    Sum of forces
        Total    : (36.1768 -0.0605504 3.49338)
        Pressure : (36.1187 -0.0605353 3.49965)
        Viscous  : (0.0580732 -1.51024e-05 -0.00626983)
    Sum of moments
        Total    : (-2.02924 2.82882 18.0935)
        Pressure : (-2.03215 2.82839 18.0647)
        Viscous  : (0.0029116 0.000436005 0.0288164)
Courant Number mean: 0.012626 max: 0.491384
deltaT = 4.23169e-05
Time = 0.000349936

PIMPLE: iteration 1
smoothSolver:  Solving for Ux, Initial residual = 1.10616e-06, Final residual = 5.75825e-14, No Iterations 1
smoothSolver:  Solving for Uy, Initial residual = 9.86713e-07, Final residual = 9.86713e-07, No Iterations 0
smoothSolver:  Solving for Uz, Initial residual = 9.45628e-07, Final residual = 9.45628e-07, No Iterations 0
GAMG:  Solving for p, Initial residual = 0.999982, Final residual = 0.040419, No Iterations 1
GAMG:  Solving for p, Initial residual = 0.0478256, Final residual = 0.00244828, No Iterations 2
time step continuity errors : sum local = 4.07353e-06, global = 3.029e-07, cumulative = 2.65489e-06
GAMG:  Solving for p, Initial residual = 0.999761, Final residual = 0.0404102, No Iterations 1
GAMG:  Solving for p, Initial residual = 0.0478201, Final residual = 7.67808e-07, No Iterations 11
time step continuity errors : sum local = 1.27752e-09, global = 5.69623e-11, cumulative = 2.65495e-06
PIMPLE: iteration 2
smoothSolver:  Solving for Ux, Initial residual = 0.0931647, Final residual = 5.10417e-08, No Iterations 2
smoothSolver:  Solving for Uy, Initial residual = 0.0619836, Final residual = 2.86631e-08, No Iterations 2
smoothSolver:  Solving for Uz, Initial residual = 0.059603, Final residual = 2.80565e-08, No Iterations 2
GAMG:  Solving for p, Initial residual = 0.602164, Final residual = 0.0244075, No Iterations 1
GAMG:  Solving for p, Initial residual = 0.155878, Final residual = 0.00791877, No Iterations 2
time step continuity errors : sum local = 4.17413e-06, global = -3.10852e-07, cumulative = 2.3441e-06
GAMG:  Solving for p, Initial residual = 0.244839, Final residual = 0.0129624, No Iterations 1
GAMG:  Solving for p, Initial residual = 0.0366993, Final residual = 7.82602e-07, No Iterations 11
time step continuity errors : sum local = 1.41579e-10, global = -7.68177e-12, cumulative = 2.34409e-06
smoothSolver:  Solving for omega, Initial residual = 0.0020242, Final residual = 4.76037e-09, No Iterations 2
smoothSolver:  Solving for k, Initial residual = 0.0428398, Final residual = 4.97844e-08, No Iterations 2
ExecutionTime = 0.45 s  ClockTime = 1 s

forces forces1 write:
    Sum of forces
        Total    : (36.4855 -0.0539763 3.88808)
        Pressure : (36.4273 -0.0539856 3.89419)
        Viscous  : (0.058214 9.29709e-06 -0.00611493)
    Sum of moments
        Total    : (-2.21174 2.87145 18.2613)
        Pressure : (-2.21457 2.87099 18.2325)
        Viscous  : (0.00283584 0.000464174 0.0288786)
Courant Number mean: 0.0128443 max: 0.491706
deltaT = 4.30307e-05
Time = 0.000392967

PIMPLE: iteration 1
smoothSolver:  Solving for Ux, Initial residual = 1.09245e-06, Final residual = 5.6904e-14, No Iterations 1
smoothSolver:  Solving for Uy, Initial residual = 9.65845e-07, Final residual = 9.65845e-07, No Iterations 0
smoothSolver:  Solving for Uz, Initial residual = 9.24437e-07, Final residual = 9.24437e-07, No Iterations 0
GAMG:  Solving for p, Initial residual = 0.999982, Final residual = 0.0401873, No Iterations 1
GAMG:  Solving for p, Initial residual = 0.0475637, Final residual = 0.00238689, No Iterations 2
time step continuity errors : sum local = 3.87184e-06, global = 2.87748e-07, cumulative = 2.63184e-06
GAMG:  Solving for p, Initial residual = 0.999763, Final residual = 0.0401785, No Iterations 1
GAMG:  Solving for p, Initial residual = 0.0475582, Final residual = 7.4847e-07, No Iterations 11
time step continuity errors : sum local = 1.21413e-09, global = 5.41828e-11, cumulative = 2.63189e-06
PIMPLE: iteration 2
smoothSolver:  Solving for Ux, Initial residual = 0.0877601, Final residual = 4.9559e-08, No Iterations 2
smoothSolver:  Solving for Uy, Initial residual = 0.0596601, Final residual = 2.8404e-08, No Iterations 2
smoothSolver:  Solving for Uz, Initial residual = 0.0573057, Final residual = 2.77498e-08, No Iterations 2
GAMG:  Solving for p, Initial residual = 0.612118, Final residual = 0.0246755, No Iterations 1
GAMG:  Solving for p, Initial residual = 0.160129, Final residual = 0.00798259, No Iterations 2
time step continuity errors : sum local = 3.96351e-06, global = -2.95087e-07, cumulative = 2.3368e-06
GAMG:  Solving for p, Initial residual = 0.247939, Final residual = 0.0131515, No Iterations 1
GAMG:  Solving for p, Initial residual = 0.037428, Final residual = 7.98793e-07, No Iterations 11
time step continuity errors : sum local = 1.34148e-10, global = -7.28274e-12, cumulative = 2.3368e-06
smoothSolver:  Solving for omega, Initial residual = 0.0019533, Final residual = 4.86069e-09, No Iterations 2
smoothSolver:  Solving for k, Initial residual = 0.0371934, Final residual = 4.58251e-08, No Iterations 2
ExecutionTime = 0.49 s  ClockTime = 1 s

forces forces1 write:
    Sum of forces
        Total    : (36.5848 -0.0475512 4.15905)
        Pressure : (36.5265 -0.0475832 4.16502)
        Viscous  : (0.0583509 3.20295e-05 -0.00597231)
    Sum of moments
        Total    : (-2.33355 2.8933 18.3179)
        Pressure : (-2.33632 2.89281 18.2889)
        Viscous  : (0.00276747 0.000491298 0.0289435)
Courant Number mean: 0.0130582 max: 0.492016
deltaT = 4.37289e-05
Time = 0.000436696

PIMPLE: iteration 1
smoothSolver:  Solving for Ux, Initial residual = 1.08481e-06, Final residual = 5.65167e-14, No Iterations 1
smoothSolver:  Solving for Uy, Initial residual = 9.50202e-07, Final residual = 9.50202e-07, No Iterations 0
smoothSolver:  Solving for Uz, Initial residual = 9.08367e-07, Final residual = 9.08367e-07, No Iterations 0
GAMG:  Solving for p, Initial residual = 0.999983, Final residual = 0.0399842, No Iterations 1
GAMG:  Solving for p, Initial residual = 0.0473442, Final residual = 0.00233142, No Iterations 2
time step continuity errors : sum local = 3.69295e-06, global = 2.74209e-07, cumulative = 2.61101e-06
GAMG:  Solving for p, Initial residual = 0.999765, Final residual = 0.0399756, No Iterations 1
GAMG:  Solving for p, Initial residual = 0.0473387, Final residual = 7.30944e-07, No Iterations 11
time step continuity errors : sum local = 1.15782e-09, global = 5.17256e-11, cumulative = 2.61106e-06
PIMPLE: iteration 2
smoothSolver:  Solving for Ux, Initial residual = 0.0831092, Final residual = 4.84395e-08, No Iterations 2
smoothSolver:  Solving for Uy, Initial residual = 0.0576166, Final residual = 2.82606e-08, No Iterations 2
smoothSolver:  Solving for Uz, Initial residual = 0.055291, Final residual = 2.75849e-08, No Iterations 2
GAMG:  Solving for p, Initial residual = 0.621224, Final residual = 0.0249235, No Iterations 1
GAMG:  Solving for p, Initial residual = 0.164238, Final residual = 0.00804138, No Iterations 2
time step continuity errors : sum local = 3.77729e-06, global = -2.81045e-07, cumulative = 2.33001e-06
GAMG:  Solving for p, Initial residual = 0.250494, Final residual = 0.0133139, No Iterations 1
GAMG:  Solving for p, Initial residual = 0.0380849, Final residual = 8.13366e-07, No Iterations 11
time step continuity errors : sum local = 1.2758e-10, global = -6.93036e-12, cumulative = 2.33001e-06
smoothSolver:  Solving for omega, Initial residual = 0.00188472, Final residual = 4.93049e-09, No Iterations 2
smoothSolver:  Solving for k, Initial residual = 0.0327245, Final residual = 4.2623e-08, No Iterations 2
ExecutionTime = 0.53 s  ClockTime = 1 s

forces forces1 write:
    Sum of forces
        Total    : (36.5307 -0.042442 4.34198)
        Pressure : (36.4722 -0.0424859 4.34781)
        Viscous  : (0.0584848 4.38354e-05 -0.00583878)
    Sum of moments
        Total    : (-2.40651 2.9 18.2935)
        Pressure : (-2.40922 2.89948 18.2645)
        Viscous  : (0.00270635 0.000517294 0.0290081)
Courant Number mean: 0.0132674 max: 0.492304
deltaT = 4.44125e-05
Time = 0.000481108

PIMPLE: iteration 1
smoothSolver:  Solving for Ux, Initial residual = 1.08092e-06, Final residual = 5.63434e-14, No Iterations 1
smoothSolver:  Solving for Uy, Initial residual = 9.38158e-07, Final residual = 9.38158e-07, No Iterations 0
smoothSolver:  Solving for Uz, Initial residual = 8.96134e-07, Final residual = 8.96134e-07, No Iterations 0
GAMG:  Solving for p, Initial residual = 0.999983, Final residual = 0.0398075, No Iterations 1
GAMG:  Solving for p, Initial residual = 0.0471581, Final residual = 0.00228097, No Iterations 2
time step continuity errors : sum local = 3.5331e-06, global = 2.62036e-07, cumulative = 2.59204e-06
GAMG:  Solving for p, Initial residual = 0.999766, Final residual = 0.039799, No Iterations 1
GAMG:  Solving for p, Initial residual = 0.0471527, Final residual = 7.14977e-07, No Iterations 11
time step continuity errors : sum local = 1.10748e-09, global = 4.95379e-11, cumulative = 2.59209e-06
PIMPLE: iteration 2
smoothSolver:  Solving for Ux, Initial residual = 0.0790756, Final residual = 4.75845e-08, No Iterations 2
smoothSolver:  Solving for Uy, Initial residual = 0.0558067, Final residual = 2.82251e-08, No Iterations 2
smoothSolver:  Solving for Uz, Initial residual = 0.0535108, Final residual = 2.75148e-08, No Iterations 2
GAMG:  Solving for p, Initial residual = 0.629574, Final residual = 0.0251538, No Iterations 1
GAMG:  Solving for p, Initial residual = 0.168197, Final residual = 0.00809604, No Iterations 2
time step continuity errors : sum local = 3.61131e-06, global = -2.68452e-07, cumulative = 2.32364e-06
GAMG:  Solving for p, Initial residual = 0.252603, Final residual = 0.013455, No Iterations 1
GAMG:  Solving for p, Initial residual = 0.0386848, Final residual = 8.26631e-07, No Iterations 11
time step continuity errors : sum local = 1.21733e-10, global = -6.61648e-12, cumulative = 2.32363e-06
smoothSolver:  Solving for omega, Initial residual = 0.00181842, Final residual = 4.98208e-09, No Iterations 2
smoothSolver:  Solving for k, Initial residual = 0.029108, Final residual = 4.00751e-08, No Iterations 2
ExecutionTime = 0.57 s  ClockTime = 1 s

forces forces1 write:
    Sum of forces
        Total    : (36.3715 -0.0377384 4.45453)
        Pressure : (36.3129 -0.0377922 4.46025)
        Viscous  : (0.0586153 5.3769e-05 -0.00571765)
    Sum of moments
        Total    : (-2.44114 2.89522 18.212)
        Pressure : (-2.44379 2.89468 18.1829)
        Viscous  : (0.00265353 0.000541211 0.0290694)
Courant Number mean: 0.0134723 max: 0.49257
deltaT = 4.50824e-05
Time = 0.000526191

PIMPLE: iteration 1
smoothSolver:  Solving for Ux, Initial residual = 1.07952e-06, Final residual = 5.63063e-14, No Iterations 1
smoothSolver:  Solving for Uy, Initial residual = 9.28869e-07, Final residual = 9.28869e-07, No Iterations 0
smoothSolver:  Solving for Uz, Initial residual = 8.86625e-07, Final residual = 8.86625e-07, No Iterations 0
GAMG:  Solving for p, Initial residual = 0.999983, Final residual = 0.0396543, No Iterations 1
GAMG:  Solving for p, Initial residual = 0.047001, Final residual = 0.00223508, No Iterations 2
time step continuity errors : sum local = 3.38949e-06, global = 2.5103e-07, cumulative = 2.57466e-06
GAMG:  Solving for p, Initial residual = 0.999768, Final residual = 0.0396458, No Iterations 1
GAMG:  Solving for p, Initial residual = 0.0469957, Final residual = 7.00419e-07, No Iterations 11
time step continuity errors : sum local = 1.0622e-09, global = 4.75782e-11, cumulative = 2.57471e-06
PIMPLE: iteration 2
smoothSolver:  Solving for Ux, Initial residual = 0.0755451, Final residual = 4.68932e-08, No Iterations 2
smoothSolver:  Solving for Uy, Initial residual = 0.0541937, Final residual = 2.82445e-08, No Iterations 2
smoothSolver:  Solving for Uz, Initial residual = 0.0519224, Final residual = 2.75041e-08, No Iterations 2
GAMG:  Solving for p, Initial residual = 0.637252, Final residual = 0.0253655, No Iterations 1
GAMG:  Solving for p, Initial residual = 0.171999, Final residual = 0.00814672, No Iterations 2
time step continuity errors : sum local = 3.46242e-06, global = -2.5709e-07, cumulative = 2.31762e-06
GAMG:  Solving for p, Initial residual = 0.254341, Final residual = 0.0135777, No Iterations 1
GAMG:  Solving for p, Initial residual = 0.0392316, Final residual = 8.38684e-07, No Iterations 11
time step continuity errors : sum local = 1.16493e-10, global = -6.33527e-12, cumulative = 2.31761e-06
smoothSolver:  Solving for omega, Initial residual = 0.00175455, Final residual = 5.04811e-09, No Iterations 2
smoothSolver:  Solving for k, Initial residual = 0.0261244, Final residual = 3.79106e-08, No Iterations 2
ExecutionTime = 0.6 s  ClockTime = 1 s

forces forces1 write:
    Sum of forces
        Total    : (36.136 -0.0341336 4.51514)
        Pressure : (36.0773 -0.0342003 4.52074)
        Viscous  : (0.0587418 6.67405e-05 -0.00560199)
    Sum of moments
        Total    : (-2.45349 2.88194 18.0933)
        Pressure : (-2.45609 2.88137 18.0642)
        Viscous  : (0.00260357 0.00056382 0.02913)
Courant Number mean: 0.0136731 max: 0.492832
deltaT = 4.57381e-05
Time = 0.000571929

PIMPLE: iteration 1
smoothSolver:  Solving for Ux, Initial residual = 1.07952e-06, Final residual = 5.63462e-14, No Iterations 1
smoothSolver:  Solving for Uy, Initial residual = 9.21904e-07, Final residual = 9.21904e-07, No Iterations 0
smoothSolver:  Solving for Uz, Initial residual = 8.79231e-07, Final residual = 8.79231e-07, No Iterations 0
GAMG:  Solving for p, Initial residual = 0.999984, Final residual = 0.0395166, No Iterations 1
GAMG:  Solving for p, Initial residual = 0.0468681, Final residual = 0.00219317, No Iterations 2
time step continuity errors : sum local = 3.25966e-06, global = 2.41026e-07, cumulative = 2.55864e-06
GAMG:  Solving for p, Initial residual = 0.999769, Final residual = 0.0395082, No Iterations 1
GAMG:  Solving for p, Initial residual = 0.0468628, Final residual = 6.87095e-07, No Iterations 11
time step continuity errors : sum local = 1.02123e-09, global = 4.58125e-11, cumulative = 2.55868e-06
PIMPLE: iteration 2
smoothSolver:  Solving for Ux, Initial residual = 0.0724387, Final residual = 4.63765e-08, No Iterations 2
smoothSolver:  Solving for Uy, Initial residual = 0.0527464, Final residual = 2.83172e-08, No Iterations 2
smoothSolver:  Solving for Uz, Initial residual = 0.050499, Final residual = 2.75999e-08, No Iterations 2
GAMG:  Solving for p, Initial residual = 0.64432, Final residual = 0.0255619, No Iterations 1
GAMG:  Solving for p, Initial residual = 0.175655, Final residual = 0.00819418, No Iterations 2
time step continuity errors : sum local = 3.32817e-06, global = -2.46797e-07, cumulative = 2.31189e-06
GAMG:  Solving for p, Initial residual = 0.255734, Final residual = 0.0136808, No Iterations 1
GAMG:  Solving for p, Initial residual = 0.0397408, Final residual = 8.49514e-07, No Iterations 11
time step continuity errors : sum local = 1.11731e-10, global = -6.08955e-12, cumulative = 2.31188e-06
smoothSolver:  Solving for omega, Initial residual = 0.00169291, Final residual = 5.12465e-09, No Iterations 2
smoothSolver:  Solving for k, Initial residual = 0.0236238, Final residual = 3.60582e-08, No Iterations 2
ExecutionTime = 0.64 s  ClockTime = 1 s

forces forces1 write:
    Sum of forces
        Total    : (35.8751 -0.0310876 4.5531)
        Pressure : (35.8162 -0.0311677 4.55859)
        Viscous  : (0.0588739 8.01647e-05 -0.00549166)
    Sum of moments
        Total    : (-2.45914 2.86605 17.9604)
        Pressure : (-2.4617 2.86546 17.9312)
        Viscous  : (0.00255615 0.00058628 0.0291946)
Courant Number mean: 0.0138697 max: 0.493231
deltaT = 4.63658e-05
Time = 0.000618295

PIMPLE: iteration 1
smoothSolver:  Solving for Ux, Initial residual = 1.08029e-06, Final residual = 5.63907e-14, No Iterations 1
smoothSolver:  Solving for Uy, Initial residual = 9.16151e-07, Final residual = 9.16151e-07, No Iterations 0
smoothSolver:  Solving for Uz, Initial residual = 8.73245e-07, Final residual = 8.73245e-07, No Iterations 0
GAMG:  Solving for p, Initial residual = 0.999984, Final residual = 0.0393922, No Iterations 1
GAMG:  Solving for p, Initial residual = 0.0467525, Final residual = 0.00215487, No Iterations 2
time step continuity errors : sum local = 3.14088e-06, global = 2.31822e-07, cumulative = 2.5437e-06
GAMG:  Solving for p, Initial residual = 0.99977, Final residual = 0.0393838, No Iterations 1
GAMG:  Solving for p, Initial residual = 0.0467472, Final residual = 6.7488e-07, No Iterations 11
time step continuity errors : sum local = 9.83701e-10, global = 4.42019e-11, cumulative = 2.54375e-06
PIMPLE: iteration 2
smoothSolver:  Solving for Ux, Initial residual = 0.0696841, Final residual = 4.59524e-08, No Iterations 2
smoothSolver:  Solving for Uy, Initial residual = 0.0514387, Final residual = 2.83963e-08, No Iterations 2
smoothSolver:  Solving for Uz, Initial residual = 0.0492165, Final residual = 2.77204e-08, No Iterations 2
GAMG:  Solving for p, Initial residual = 0.65083, Final residual = 0.0257443, No Iterations 1
GAMG:  Solving for p, Initial residual = 0.179174, Final residual = 0.00823817, No Iterations 2
time step continuity errors : sum local = 3.20525e-06, global = -2.37324e-07, cumulative = 2.30642e-06
GAMG:  Solving for p, Initial residual = 0.256819, Final residual = 0.0137722, No Iterations 1
GAMG:  Solving for p, Initial residual = 0.0401916, Final residual = 8.59343e-07, No Iterations 11
time step continuity errors : sum local = 1.07417e-10, global = -5.85753e-12, cumulative = 2.30642e-06
smoothSolver:  Solving for omega, Initial residual = 0.00163251, Final residual = 5.18972e-09, No Iterations 2
smoothSolver:  Solving for k, Initial residual = 0.021494, Final residual = 3.44289e-08, No Iterations 2
ExecutionTime = 0.68 s  ClockTime = 1 s

forces forces1 write:
    Sum of forces
        Total    : (35.5636 -0.0284192 4.55951)
        Pressure : (35.5046 -0.0285154 4.56489)
        Viscous  : (0.0590012 9.62258e-05 -0.00538214)
    Sum of moments
        Total    : (-2.44847 2.84445 17.8016)
        Pressure : (-2.45098 2.84385 17.7724)
        Viscous  : (0.00250667 0.000608521 0.029257)
Courant Number mean: 0.014058 max: 0.493659
deltaT = 4.69614e-05
Time = 0.000665256

PIMPLE: iteration 1
smoothSolver:  Solving for Ux, Initial residual = 1.08094e-06, Final residual = 5.64449e-14, No Iterations 1
smoothSolver:  Solving for Uy, Initial residual = 9.1145e-07, Final residual = 9.1145e-07, No Iterations 0
smoothSolver:  Solving for Uz, Initial residual = 8.68231e-07, Final residual = 8.68231e-07, No Iterations 0
GAMG:  Solving for p, Initial residual = 0.999984, Final residual = 0.0392797, No Iterations 1
GAMG:  Solving for p, Initial residual = 0.0466562, Final residual = 0.00211982, No Iterations 2
time step continuity errors : sum local = 3.03131e-06, global = 2.233e-07, cumulative = 2.52972e-06
GAMG:  Solving for p, Initial residual = 0.99977, Final residual = 0.0392714, No Iterations 1
GAMG:  Solving for p, Initial residual = 0.046651, Final residual = 6.63686e-07, No Iterations 11
time step continuity errors : sum local = 9.49071e-10, global = 4.27211e-11, cumulative = 2.52976e-06
PIMPLE: iteration 2
smoothSolver:  Solving for Ux, Initial residual = 0.067231, Final residual = 4.55919e-08, No Iterations 2
smoothSolver:  Solving for Uy, Initial residual = 0.0502543, Final residual = 2.84861e-08, No Iterations 2
smoothSolver:  Solving for Uz, Initial residual = 0.0480567, Final residual = 2.78649e-08, No Iterations 2
GAMG:  Solving for p, Initial residual = 0.65685, Final residual = 0.0259121, No Iterations 1
GAMG:  Solving for p, Initial residual = 0.182548, Final residual = 0.00827921, No Iterations 2
time step continuity errors : sum local = 3.092e-06, global = -2.28572e-07, cumulative = 2.30119e-06
GAMG:  Solving for p, Initial residual = 0.257619, Final residual = 0.0138496, No Iterations 1
GAMG:  Solving for p, Initial residual = 0.0405987, Final residual = 8.68183e-07, No Iterations 11
time step continuity errors : sum local = 1.03456e-10, global = -5.64432e-12, cumulative = 2.30118e-06
smoothSolver:  Solving for omega, Initial residual = 0.0015735, Final residual = 5.25603e-09, No Iterations 2
smoothSolver:  Solving for k, Initial residual = 0.0196578, Final residual = 3.29298e-08, No Iterations 2
ExecutionTime = 0.71 s  ClockTime = 1 s

forces forces1 write:
    Sum of forces
        Total    : (35.2296 -0.0266839 4.53489)
        Pressure : (35.1705 -0.0267938 4.54017)
        Viscous  : (0.0591163 0.000109915 -0.00527607)
    Sum of moments
        Total    : (-2.42316 2.8194 17.6331)
        Pressure : (-2.42561 2.81877 17.6038)
        Viscous  : (0.00245882 0.000630011 0.029313)
Courant Number mean: 0.0142365 max: 0.494012
deltaT = 4.75306e-05
Time = 0.000712786

PIMPLE: iteration 1
smoothSolver:  Solving for Ux, Initial residual = 1.08141e-06, Final residual = 5.65027e-14, No Iterations 1
smoothSolver:  Solving for Uy, Initial residual = 9.07524e-07, Final residual = 9.07524e-07, No Iterations 0
smoothSolver:  Solving for Uz, Initial residual = 8.64114e-07, Final residual = 8.64114e-07, No Iterations 0
GAMG:  Solving for p, Initial residual = 0.999984, Final residual = 0.0391761, No Iterations 1
GAMG:  Solving for p, Initial residual = 0.046575, Final residual = 0.00208761, No Iterations 2
time step continuity errors : sum local = 2.93013e-06, global = 2.15404e-07, cumulative = 2.51659e-06
GAMG:  Solving for p, Initial residual = 0.999771, Final residual = 0.0391678, No Iterations 1
GAMG:  Solving for p, Initial residual = 0.0465698, Final residual = 6.53391e-07, No Iterations 11
time step continuity errors : sum local = 9.17099e-10, global = 4.13588e-11, cumulative = 2.51663e-06
PIMPLE: iteration 2
smoothSolver:  Solving for Ux, Initial residual = 0.0650276, Final residual = 4.52919e-08, No Iterations 2
smoothSolver:  Solving for Uy, Initial residual = 0.0491796, Final residual = 2.85893e-08, No Iterations 2
smoothSolver:  Solving for Uz, Initial residual = 0.0470056, Final residual = 2.80282e-08, No Iterations 2
GAMG:  Solving for p, Initial residual = 0.662426, Final residual = 0.0260687, No Iterations 1
GAMG:  Solving for p, Initial residual = 0.18579, Final residual = 0.00831732, No Iterations 2
time step continuity errors : sum local = 2.98756e-06, global = -2.20467e-07, cumulative = 2.29616e-06
GAMG:  Solving for p, Initial residual = 0.258166, Final residual = 0.0139137, No Iterations 1
GAMG:  Solving for p, Initial residual = 0.0409663, Final residual = 8.76105e-07, No Iterations 11
time step continuity errors : sum local = 9.98109e-11, global = -5.44809e-12, cumulative = 2.29616e-06
smoothSolver:  Solving for omega, Initial residual = 0.00151639, Final residual = 5.30195e-09, No Iterations 2
smoothSolver:  Solving for k, Initial residual = 0.0180671, Final residual = 3.15776e-08, No Iterations 2
ExecutionTime = 0.75 s  ClockTime = 1 s

forces forces1 write:
    Sum of forces
        Total    : (34.8797 -0.0255322 4.49241)
        Pressure : (34.8205 -0.0256503 4.49758)
        Viscous  : (0.059216 0.0001181 -0.00517447)
    Sum of moments
        Total    : (-2.38864 2.79253 17.4547)
        Pressure : (-2.39105 2.79188 17.4253)
        Viscous  : (0.00241085 0.000650393 0.0293634)
Courant Number mean: 0.0144072 max: 0.494374
deltaT = 4.80715e-05
Time = 0.000760858

PIMPLE: iteration 1
smoothSolver:  Solving for Ux, Initial residual = 1.0816e-06, Final residual = 5.65201e-14, No Iterations 1
smoothSolver:  Solving for Uy, Initial residual = 9.04231e-07, Final residual = 9.04231e-07, No Iterations 0
smoothSolver:  Solving for Uz, Initial residual = 8.60602e-07, Final residual = 8.60602e-07, No Iterations 0
GAMG:  Solving for p, Initial residual = 0.999985, Final residual = 0.0390824, No Iterations 1
GAMG:  Solving for p, Initial residual = 0.046509, Final residual = 0.00205804, No Iterations 2
time step continuity errors : sum local = 2.83627e-06, global = 2.0805e-07, cumulative = 2.50421e-06
GAMG:  Solving for p, Initial residual = 0.999772, Final residual = 0.0390742, No Iterations 1
GAMG:  Solving for p, Initial residual = 0.0465038, Final residual = 6.43918e-07, No Iterations 11
time step continuity errors : sum local = 8.87419e-10, global = 4.00983e-11, cumulative = 2.50425e-06
PIMPLE: iteration 2
smoothSolver:  Solving for Ux, Initial residual = 0.0630441, Final residual = 4.50042e-08, No Iterations 2
smoothSolver:  Solving for Uy, Initial residual = 0.0482015, Final residual = 2.86887e-08, No Iterations 2
smoothSolver:  Solving for Uz, Initial residual = 0.0460477, Final residual = 2.81981e-08, No Iterations 2
GAMG:  Solving for p, Initial residual = 0.667592, Final residual = 0.0262126, No Iterations 1
GAMG:  Solving for p, Initial residual = 0.188897, Final residual = 0.00835275, No Iterations 2
time step continuity errors : sum local = 2.89068e-06, global = -2.12922e-07, cumulative = 2.29132e-06
GAMG:  Solving for p, Initial residual = 0.258489, Final residual = 0.013966, No Iterations 1
GAMG:  Solving for p, Initial residual = 0.0413012, Final residual = 8.83249e-07, No Iterations 11
time step continuity errors : sum local = 9.64424e-11, global = -5.2667e-12, cumulative = 2.29132e-06
smoothSolver:  Solving for omega, Initial residual = 0.00146116, Final residual = 5.33656e-09, No Iterations 2
smoothSolver:  Solving for k, Initial residual = 0.0166738, Final residual = 3.03292e-08, No Iterations 2
ExecutionTime = 0.78 s  ClockTime = 1 s

forces forces1 write:
    Sum of forces
        Total    : (34.5173 -0.0241613 4.43599)
        Pressure : (34.458 -0.0242815 4.44106)
        Viscous  : (0.0592926 0.000120204 -0.00507007)
    Sum of moments
        Total    : (-2.34905 2.76383 17.2673)
        Pressure : (-2.35141 2.76316 17.2379)
        Viscous  : (0.00236018 0.000669309 0.0294025)
Courant Number mean: 0.0145693 max: 0.496578
deltaT = 4.84027e-05
Time = 0.000809261

PIMPLE: iteration 1
smoothSolver:  Solving for Ux, Initial residual = 1.07747e-06, Final residual = 5.61001e-14, No Iterations 1
smoothSolver:  Solving for Uy, Initial residual = 8.98001e-07, Final residual = 8.98001e-07, No Iterations 0
smoothSolver:  Solving for Uz, Initial residual = 8.54326e-07, Final residual = 8.54326e-07, No Iterations 0
GAMG:  Solving for p, Initial residual = 0.999985, Final residual = 0.0390005, No Iterations 1
GAMG:  Solving for p, Initial residual = 0.0464583, Final residual = 0.00203094, No Iterations 2
time step continuity errors : sum local = 2.73858e-06, global = 2.00419e-07, cumulative = 2.49174e-06
GAMG:  Solving for p, Initial residual = 0.999773, Final residual = 0.0389923, No Iterations 1
GAMG:  Solving for p, Initial residual = 0.0464531, Final residual = 6.35213e-07, No Iterations 11
time step continuity errors : sum local = 8.56551e-10, global = 3.87842e-11, cumulative = 2.49178e-06
PIMPLE: iteration 2
smoothSolver:  Solving for Ux, Initial residual = 0.061243, Final residual = 4.43352e-08, No Iterations 2
smoothSolver:  Solving for Uy, Initial residual = 0.0472921, Final residual = 2.85009e-08, No Iterations 2
smoothSolver:  Solving for Uz, Initial residual = 0.0451533, Final residual = 2.81031e-08, No Iterations 2
GAMG:  Solving for p, Initial residual = 0.672314, Final residual = 0.0263453, No Iterations 1
GAMG:  Solving for p, Initial residual = 0.191861, Final residual = 0.00838504, No Iterations 2
time step continuity errors : sum local = 2.78955e-06, global = -2.05084e-07, cumulative = 2.28669e-06
GAMG:  Solving for p, Initial residual = 0.258608, Final residual = 0.0140085, No Iterations 1
GAMG:  Solving for p, Initial residual = 0.0416059, Final residual = 8.89794e-07, No Iterations 11
time step continuity errors : sum local = 9.29645e-11, global = -5.07961e-12, cumulative = 2.28669e-06
smoothSolver:  Solving for omega, Initial residual = 0.00140277, Final residual = 5.28263e-09, No Iterations 2
smoothSolver:  Solving for k, Initial residual = 0.0153842, Final residual = 2.87906e-08, No Iterations 2
ExecutionTime = 0.81 s  ClockTime = 1 s

forces forces1 write:
    Sum of forces
        Total    : (34.1524 -0.0225144 4.35344)
        Pressure : (34.093 -0.0226347 4.35841)
        Viscous  : (0.0593589 0.000120345 -0.00496651)
    Sum of moments
        Total    : (-2.30233 2.73336 17.0825)
        Pressure : (-2.30464 2.73268 17.053)
        Viscous  : (0.00231007 0.000687629 0.0294375)
Courant Number mean: 0.014668 max: 0.498674
deltaT = 4.85314e-05
Time = 0.000857792

PIMPLE: iteration 1
smoothSolver:  Solving for Ux, Initial residual = 1.06923e-06, Final residual = 5.52673e-14, No Iterations 1
smoothSolver:  Solving for Uy, Initial residual = 8.89141e-07, Final residual = 8.89141e-07, No Iterations 0
smoothSolver:  Solving for Uz, Initial residual = 8.45642e-07, Final residual = 8.45642e-07, No Iterations 0
GAMG:  Solving for p, Initial residual = 0.999985, Final residual = 0.038926, No Iterations 1
GAMG:  Solving for p, Initial residual = 0.0464208, Final residual = 0.002006, No Iterations 2
time step continuity errors : sum local = 2.63798e-06, global = 1.92587e-07, cumulative = 2.47927e-06
GAMG:  Solving for p, Initial residual = 0.999773, Final residual = 0.0389178, No Iterations 1
GAMG:  Solving for p, Initial residual = 0.0464156, Final residual = 6.27189e-07, No Iterations 11
time step continuity errors : sum local = 8.24788e-10, global = 3.74284e-11, cumulative = 2.47931e-06
PIMPLE: iteration 2
smoothSolver:  Solving for Ux, Initial residual = 0.0596044, Final residual = 4.33314e-08, No Iterations 2
smoothSolver:  Solving for Uy, Initial residual = 0.0464506, Final residual = 2.80684e-08, No Iterations 2
smoothSolver:  Solving for Uz, Initial residual = 0.0443209, Final residual = 2.7769e-08, No Iterations 2
GAMG:  Solving for p, Initial residual = 0.676614, Final residual = 0.0264671, No Iterations 1
GAMG:  Solving for p, Initial residual = 0.194685, Final residual = 0.00841429, No Iterations 2
time step continuity errors : sum local = 2.68563e-06, global = -1.97033e-07, cumulative = 2.28228e-06
GAMG:  Solving for p, Initial residual = 0.258535, Final residual = 0.0140417, No Iterations 1
GAMG:  Solving for p, Initial residual = 0.0418842, Final residual = 8.95855e-07, No Iterations 11
time step continuity errors : sum local = 8.9422e-11, global = -4.88926e-12, cumulative = 2.28227e-06
smoothSolver:  Solving for omega, Initial residual = 0.00134242, Final residual = 5.16523e-09, No Iterations 2
smoothSolver:  Solving for k, Initial residual = 0.0141939, Final residual = 2.70517e-08, No Iterations 2
ExecutionTime = 0.85 s  ClockTime = 1 s

forces forces1 write:
    Sum of forces
        Total    : (33.7933 -0.0203899 4.27257)
        Pressure : (33.7338 -0.0205111 4.27743)
        Viscous  : (0.0594151 0.000121171 -0.00485907)
    Sum of moments
        Total    : (-2.25539 2.70334 16.9036)
        Pressure : (-2.25764 2.70263 16.8741)
        Viscous  : (0.00225773 0.000706051 0.0294666)
Courant Number mean: 0.0147054 max: 0.498645
deltaT = 4.86633e-05
Time = 0.000906455

PIMPLE: iteration 1
smoothSolver:  Solving for Ux, Initial residual = 1.06138e-06, Final residual = 5.45033e-14, No Iterations 1
smoothSolver:  Solving for Uy, Initial residual = 8.81322e-07, Final residual = 8.81322e-07, No Iterations 0
smoothSolver:  Solving for Uz, Initial residual = 8.37892e-07, Final residual = 8.37892e-07, No Iterations 0
GAMG:  Solving for p, Initial residual = 0.999985, Final residual = 0.038858, No Iterations 1
GAMG:  Solving for p, Initial residual = 0.0463937, Final residual = 0.00460672, No Iterations 1
time step continuity errors : sum local = 5.91384e-06, global = 2.59381e-07, cumulative = 2.54165e-06
GAMG:  Solving for p, Initial residual = 0.999779, Final residual = 0.0388502, No Iterations 1
GAMG:  Solving for p, Initial residual = 0.0463888, Final residual = 6.19765e-07, No Iterations 11
time step continuity errors : sum local = 7.95624e-10, global = 3.61882e-11, cumulative = 2.54169e-06
PIMPLE: iteration 2
smoothSolver:  Solving for Ux, Initial residual = 0.0581184, Final residual = 4.2444e-08, No Iterations 2
smoothSolver:  Solving for Uy, Initial residual = 0.0456863, Final residual = 2.76908e-08, No Iterations 2
smoothSolver:  Solving for Uz, Initial residual = 0.0435659, Final residual = 2.752e-08, No Iterations 2
GAMG:  Solving for p, Initial residual = 0.680618, Final residual = 0.026581, No Iterations 1
GAMG:  Solving for p, Initial residual = 0.197412, Final residual = 0.0196957, No Iterations 1
time step continuity errors : sum local = 6.04408e-06, global = -2.54496e-07, cumulative = 2.28719e-06
GAMG:  Solving for p, Initial residual = 0.121055, Final residual = 0.00643863, No Iterations 2
GAMG:  Solving for p, Initial residual = 0.14553, Final residual = 9.93704e-07, No Iterations 11
time step continuity errors : sum local = 9.27136e-11, global = -5.90089e-12, cumulative = 2.28719e-06
smoothSolver:  Solving for omega, Initial residual = 0.00128581, Final residual = 5.05398e-09, No Iterations 2
smoothSolver:  Solving for k, Initial residual = 0.0131428, Final residual = 2.54876e-08, No Iterations 2
ExecutionTime = 0.89 s  ClockTime = 1 s

forces forces1 write:
    Sum of forces
        Total    : (33.8135 -0.023051 4.20732)
        Pressure : (33.754 -0.0231722 4.21207)
        Viscous  : (0.0594532 0.000121283 -0.0047486)
    Sum of moments
        Total    : (-2.19912 2.69877 16.9034)
        Pressure : (-2.20133 2.69804 16.8739)
        Viscous  : (0.00220372 0.000723856 0.0294858)
Courant Number mean: 0.0147441 max: 0.498465
deltaT = 4.88131e-05
Time = 0.000955268

PIMPLE: iteration 1
smoothSolver:  Solving for Ux, Initial residual = 1.05763e-06, Final residual = 5.38694e-14, No Iterations 1
smoothSolver:  Solving for Uy, Initial residual = 8.74037e-07, Final residual = 8.74037e-07, No Iterations 0
smoothSolver:  Solving for Uz, Initial residual = 8.31357e-07, Final residual = 8.31357e-07, No Iterations 0
GAMG:  Solving for p, Initial residual = 0.999985, Final residual = 0.0387828, No Iterations 1
GAMG:  Solving for p, Initial residual = 0.0463567, Final residual = 0.00454638, No Iterations 1
time step continuity errors : sum local = 5.70139e-06, global = 2.52673e-07, cumulative = 2.53986e-06
GAMG:  Solving for p, Initial residual = 0.999779, Final residual = 0.038775, No Iterations 1
GAMG:  Solving for p, Initial residual = 0.0463518, Final residual = 6.10856e-07, No Iterations 11
time step continuity errors : sum local = 7.6605e-10, global = 3.4964e-11, cumulative = 2.5399e-06
PIMPLE: iteration 2
smoothSolver:  Solving for Ux, Initial residual = 0.0566515, Final residual = 4.14661e-08, No Iterations 2
smoothSolver:  Solving for Uy, Initial residual = 0.0449755, Final residual = 2.73377e-08, No Iterations 2
smoothSolver:  Solving for Uz, Initial residual = 0.0428626, Final residual = 2.73073e-08, No Iterations 2
GAMG:  Solving for p, Initial residual = 0.685551, Final residual = 0.0267178, No Iterations 1
GAMG:  Solving for p, Initial residual = 0.200901, Final residual = 0.0197782, No Iterations 1
time step continuity errors : sum local = 5.82641e-06, global = -2.48152e-07, cumulative = 2.29174e-06
GAMG:  Solving for p, Initial residual = 0.12043, Final residual = 0.00644428, No Iterations 2
GAMG:  Solving for p, Initial residual = 0.143313, Final residual = 9.77048e-07, No Iterations 11
time step continuity errors : sum local = 8.93391e-11, global = -5.68579e-12, cumulative = 2.29174e-06
smoothSolver:  Solving for omega, Initial residual = 0.00123332, Final residual = 4.95894e-09, No Iterations 2
smoothSolver:  Solving for k, Initial residual = 0.0122176, Final residual = 2.41854e-08, No Iterations 2
ExecutionTime = 0.92 s  ClockTime = 1 s

forces forces1 write:
    Sum of forces
        Total    : (33.4624 -0.0223333 4.11305)
        Pressure : (33.4029 -0.0224547 4.11769)
        Viscous  : (0.059486 0.000121425 -0.0046377)
    Sum of moments
        Total    : (-2.14317 2.66841 16.7218)
        Pressure : (-2.14532 2.66767 16.6923)
        Viscous  : (0.00214999 0.00074187 0.029502)
Courant Number mean: 0.0147882 max: 0.498496
deltaT = 4.89604e-05
Time = 0.00100423

PIMPLE: iteration 1
smoothSolver:  Solving for Ux, Initial residual = 1.05036e-06, Final residual = 5.3203e-14, No Iterations 1
smoothSolver:  Solving for Uy, Initial residual = 8.6726e-07, Final residual = 8.6726e-07, No Iterations 0
smoothSolver:  Solving for Uz, Initial residual = 8.24658e-07, Final residual = 8.24658e-07, No Iterations 0
GAMG:  Solving for p, Initial residual = 0.999985, Final residual = 0.038713, No Iterations 1
GAMG:  Solving for p, Initial residual = 0.0463291, Final residual = 0.00449046, No Iterations 1
time step continuity errors : sum local = 5.50557e-06, global = 2.46599e-07, cumulative = 2.53834e-06
GAMG:  Solving for p, Initial residual = 0.99978, Final residual = 0.0387052, No Iterations 1
GAMG:  Solving for p, Initial residual = 0.0463242, Final residual = 6.02554e-07, No Iterations 11
time step continuity errors : sum local = 7.38772e-10, global = 3.38407e-11, cumulative = 2.53837e-06
PIMPLE: iteration 2
smoothSolver:  Solving for Ux, Initial residual = 0.0552595, Final residual = 4.06619e-08, No Iterations 2
smoothSolver:  Solving for Uy, Initial residual = 0.0442838, Final residual = 2.70125e-08, No Iterations 2
smoothSolver:  Solving for Uz, Initial residual = 0.0421796, Final residual = 2.71341e-08, No Iterations 2
GAMG:  Solving for p, Initial residual = 0.689732, Final residual = 0.0268367, No Iterations 1
GAMG:  Solving for p, Initial residual = 0.203952, Final residual = 0.0198576, No Iterations 1
time step continuity errors : sum local = 5.6248e-06, global = -2.41854e-07, cumulative = 2.29652e-06
GAMG:  Solving for p, Initial residual = 0.119957, Final residual = 0.00644954, No Iterations 2
GAMG:  Solving for p, Initial residual = 0.141104, Final residual = 9.60548e-07, No Iterations 11
time step continuity errors : sum local = 8.6178e-11, global = -5.48456e-12, cumulative = 2.29651e-06
smoothSolver:  Solving for omega, Initial residual = 0.00118396, Final residual = 4.84905e-09, No Iterations 2
smoothSolver:  Solving for k, Initial residual = 0.011391, Final residual = 2.29938e-08, No Iterations 2
ExecutionTime = 0.95 s  ClockTime = 2 s

forces forces1 write:
    Sum of forces
        Total    : (33.1249 -0.0213115 4.02704)
        Pressure : (33.0654 -0.0214362 4.03156)
        Viscous  : (0.0595161 0.000124646 -0.00452609)
    Sum of moments
        Total    : (-2.09217 2.63923 16.5486)
        Pressure : (-2.09427 2.63847 16.5191)
        Viscous  : (0.00209586 0.000760178 0.0295178)
Courant Number mean: 0.0148316 max: 0.498555
deltaT = 4.91024e-05
Time = 0.00105333

PIMPLE: iteration 1
smoothSolver:  Solving for Ux, Initial residual = 1.04307e-06, Final residual = 5.25514e-14, No Iterations 1
smoothSolver:  Solving for Uy, Initial residual = 8.6082e-07, Final residual = 8.6082e-07, No Iterations 0
smoothSolver:  Solving for Uz, Initial residual = 8.18259e-07, Final residual = 8.18259e-07, No Iterations 0
GAMG:  Solving for p, Initial residual = 0.999985, Final residual = 0.0386518, No Iterations 1
GAMG:  Solving for p, Initial residual = 0.0463098, Final residual = 0.00443892, No Iterations 1
time step continuity errors : sum local = 5.32449e-06, global = 2.41087e-07, cumulative = 2.5376e-06
GAMG:  Solving for p, Initial residual = 0.99978, Final residual = 0.038644, No Iterations 1
GAMG:  Solving for p, Initial residual = 0.046305, Final residual = 5.94825e-07, No Iterations 11
time step continuity errors : sum local = 7.13498e-10, global = 3.2806e-11, cumulative = 2.53763e-06
PIMPLE: iteration 2
smoothSolver:  Solving for Ux, Initial residual = 0.0539758, Final residual = 3.99527e-08, No Iterations 2
smoothSolver:  Solving for Uy, Initial residual = 0.0436494, Final residual = 2.67412e-08, No Iterations 2
smoothSolver:  Solving for Uz, Initial residual = 0.0415512, Final residual = 2.69969e-08, No Iterations 2
GAMG:  Solving for p, Initial residual = 0.693644, Final residual = 0.0269485, No Iterations 1
GAMG:  Solving for p, Initial residual = 0.206933, Final residual = 0.019936, No Iterations 1
time step continuity errors : sum local = 5.43819e-06, global = -2.36137e-07, cumulative = 2.30149e-06
GAMG:  Solving for p, Initial residual = 0.119468, Final residual = 0.006453, No Iterations 2
GAMG:  Solving for p, Initial residual = 0.139041, Final residual = 9.45101e-07, No Iterations 11
time step continuity errors : sum local = 8.32511e-11, global = -5.2983e-12, cumulative = 2.30149e-06
smoothSolver:  Solving for omega, Initial residual = 0.00113752, Final residual = 4.73835e-09, No Iterations 2
smoothSolver:  Solving for k, Initial residual = 0.0106482, Final residual = 2.18942e-08, No Iterations 2
ExecutionTime = 0.98 s  ClockTime = 2 s

forces forces1 write:
    Sum of forces
        Total    : (32.802 -0.0202347 3.95443)
        Pressure : (32.7425 -0.0203646 3.95884)
        Viscous  : (0.0595412 0.000129851 -0.00441396)
    Sum of moments
        Total    : (-2.05125 2.61181 16.3843)
        Pressure : (-2.05329 2.61103 16.3548)
        Viscous  : (0.0020413 0.000778493 0.0295308)
Courant Number mean: 0.0148735 max: 0.49858
deltaT = 4.92422e-05
Time = 0.00110257

PIMPLE: iteration 1
smoothSolver:  Solving for Ux, Initial residual = 1.03582e-06, Final residual = 5.19275e-14, No Iterations 1
[...]
time step continuity errors : sum local = 2.30811e-11, global = -1.50616e-12, cumulative = 2.902e-06
smoothSolver:  Solving for omega, Initial residual = 0.000189506, Final residual = 2.58618e-07, No Iterations 1
smoothSolver:  Solving for k, Initial residual = 0.000739079, Final residual = 8.95132e-07, No Iterations 1
ExecutionTime = 3.99 s  ClockTime = 5 s

forces forces1 write:
    Sum of forces
        Total    : (22.8063 -0.00402852 2.18996)
        Pressure : (22.7566 -0.00416127 2.18636)
        Viscous  : (0.0497584 0.000132752 0.00360302)
    Sum of moments
        Total    : (-1.11745 1.70334 11.3619)
        Pressure : (-1.11558 1.70176 11.337)
        Viscous  : (-0.00187314 0.00157986 0.0248962)
Courant Number mean: 0.0157174 max: 0.499982
deltaT = 5.19855e-05
Time = 0.00574866

PIMPLE: iteration 1
smoothSolver:  Solving for Ux, Initial residual = 3.49356e-07, Final residual = 3.49356e-07, No Iterations 0
smoothSolver:  Solving for Uy, Initial residual = 5.53897e-07, Final residual = 5.53897e-07, No Iterations 0
smoothSolver:  Solving for Uz, Initial residual = 4.99239e-07, Final residual = 4.99239e-07, No Iterations 0
GAMG:  Solving for p, Initial residual = 0.999988, Final residual = 0.0381414, No Iterations 1
GAMG:  Solving for p, Initial residual = 0.0515893, Final residual = 0.00423514, No Iterations 1
time step continuity errors : sum local = 1.85117e-06, global = 1.40081e-07, cumulative = 3.04208e-06
GAMG:  Solving for p, Initial residual = 0.999788, Final residual = 0.0381339, No Iterations 1
GAMG:  Solving for p, Initial residual = 0.0515841, Final residual = 4.46109e-07, No Iterations 11
time step continuity errors : sum local = 1.94994e-10, global = 1.18684e-11, cumulative = 3.04209e-06
PIMPLE: iteration 2
smoothSolver:  Solving for Ux, Initial residual = 0.0239069, Final residual = 2.54315e-08, No Iterations 2
smoothSolver:  Solving for Uy, Initial residual = 0.0404621, Final residual = 3.19964e-08, No Iterations 2
smoothSolver:  Solving for Uz, Initial residual = 0.0345703, Final residual = 3.05717e-08, No Iterations 2
GAMG:  Solving for p, Initial residual = 0.77223, Final residual = 0.0296509, No Iterations 1
GAMG:  Solving for p, Initial residual = 0.321425, Final residual = 0.0263816, No Iterations 1
time step continuity errors : sum local = 1.84316e-06, global = -1.35343e-07, cumulative = 2.90675e-06
GAMG:  Solving for p, Initial residual = 0.106752, Final residual = 0.00593769, No Iterations 2
GAMG:  Solving for p, Initial residual = 0.12031, Final residual = 8.14699e-07, No Iterations 11
time step continuity errors : sum local = 2.28857e-11, global = -1.49337e-12, cumulative = 2.90674e-06
smoothSolver:  Solving for omega, Initial residual = 0.00018766, Final residual = 2.56618e-07, No Iterations 1
smoothSolver:  Solving for k, Initial residual = 0.00073237, Final residual = 8.87363e-07, No Iterations 1
ExecutionTime = 4.02 s  ClockTime = 5 s

forces forces1 write:
    Sum of forces
        Total    : (22.7755 -0.00429129 2.19965)
        Pressure : (22.7259 -0.0044255 2.19599)
        Viscous  : (0.0496226 0.000134215 0.00366307)
    Sum of moments
        Total    : (-1.12284 1.70086 11.3479)
        Pressure : (-1.12094 1.69927 11.323)
        Viscous  : (-0.00190362 0.00158359 0.02483)
Courant Number mean: 0.0157178 max: 0.49998
deltaT = 5.19876e-05
Time = 0.00580064

PIMPLE: iteration 1
smoothSolver:  Solving for Ux, Initial residual = 3.44233e-07, Final residual = 3.44233e-07, No Iterations 0
smoothSolver:  Solving for Uy, Initial residual = 5.51842e-07, Final residual = 5.51842e-07, No Iterations 0
smoothSolver:  Solving for Uz, Initial residual = 4.96912e-07, Final residual = 4.96912e-07, No Iterations 0
GAMG:  Solving for p, Initial residual = 0.999988, Final residual = 0.0381424, No Iterations 1
GAMG:  Solving for p, Initial residual = 0.0516239, Final residual = 0.00423993, No Iterations 1
time step continuity errors : sum local = 1.83995e-06, global = 1.3919e-07, cumulative = 3.04593e-06
GAMG:  Solving for p, Initial residual = 0.999788, Final residual = 0.0381349, No Iterations 1
GAMG:  Solving for p, Initial residual = 0.0516188, Final residual = 4.45619e-07, No Iterations 11
time step continuity errors : sum local = 1.9338e-10, global = 1.17747e-11, cumulative = 3.04595e-06
PIMPLE: iteration 2
smoothSolver:  Solving for Ux, Initial residual = 0.023698, Final residual = 2.52755e-08, No Iterations 2
smoothSolver:  Solving for Uy, Initial residual = 0.0405159, Final residual = 3.21074e-08, No Iterations 2
smoothSolver:  Solving for Uz, Initial residual = 0.0345676, Final residual = 3.06564e-08, No Iterations 2
GAMG:  Solving for p, Initial residual = 0.772359, Final residual = 0.0296572, No Iterations 1
GAMG:  Solving for p, Initial residual = 0.321944, Final residual = 0.0264371, No Iterations 1
time step continuity errors : sum local = 1.83201e-06, global = -1.34517e-07, cumulative = 2.91143e-06
GAMG:  Solving for p, Initial residual = 0.106813, Final residual = 0.00593477, No Iterations 2
GAMG:  Solving for p, Initial residual = 0.120421, Final residual = 8.1599e-07, No Iterations 11
time step continuity errors : sum local = 2.26939e-11, global = -1.48077e-12, cumulative = 2.91143e-06
smoothSolver:  Solving for omega, Initial residual = 0.000185854, Final residual = 2.5466e-07, No Iterations 1
smoothSolver:  Solving for k, Initial residual = 0.00072588, Final residual = 8.79859e-07, No Iterations 1
ExecutionTime = 4.05 s  ClockTime = 5 s

forces forces1 write:
    Sum of forces
        Total    : (22.7306 -0.00440113 2.18377)
        Pressure : (22.6812 -0.00453705 2.18005)
        Viscous  : (0.0494875 0.000135926 0.00372278)
    Sum of moments
        Total    : (-1.11655 1.69578 11.3248)
        Pressure : (-1.11461 1.69419 11.3001)
        Viscous  : (-0.00193387 0.00158728 0.0247641)
Courant Number mean: 0.0157183 max: 0.499978
deltaT = 5.19899e-05
Time = 0.00585263

PIMPLE: iteration 1
smoothSolver:  Solving for Ux, Initial residual = 3.39175e-07, Final residual = 3.39175e-07, No Iterations 0
smoothSolver:  Solving for Uy, Initial residual = 5.49761e-07, Final residual = 5.49761e-07, No Iterations 0
smoothSolver:  Solving for Uz, Initial residual = 4.94592e-07, Final residual = 4.94592e-07, No Iterations 0
GAMG:  Solving for p, Initial residual = 0.999988, Final residual = 0.0381442, No Iterations 1
GAMG:  Solving for p, Initial residual = 0.0516578, Final residual = 0.00424482, No Iterations 1
time step continuity errors : sum local = 1.82891e-06, global = 1.38303e-07, cumulative = 3.04973e-06
GAMG:  Solving for p, Initial residual = 0.999788, Final residual = 0.0381367, No Iterations 1
GAMG:  Solving for p, Initial residual = 0.0516526, Final residual = 4.45141e-07, No Iterations 11
time step continuity errors : sum local = 1.91792e-10, global = 1.1682e-11, cumulative = 3.04974e-06
PIMPLE: iteration 2
smoothSolver:  Solving for Ux, Initial residual = 0.0234904, Final residual = 2.51204e-08, No Iterations 2
smoothSolver:  Solving for Uy, Initial residual = 0.0405685, Final residual = 3.22178e-08, No Iterations 2
smoothSolver:  Solving for Uz, Initial residual = 0.0345645, Final residual = 3.07426e-08, No Iterations 2
GAMG:  Solving for p, Initial residual = 0.772481, Final residual = 0.0296618, No Iterations 1
GAMG:  Solving for p, Initial residual = 0.32245, Final residual = 0.0264901, No Iterations 1
time step continuity errors : sum local = 1.82086e-06, global = -1.33684e-07, cumulative = 2.91606e-06
GAMG:  Solving for p, Initial residual = 0.106872, Final residual = 0.0059314, No Iterations 2
GAMG:  Solving for p, Initial residual = 0.120521, Final residual = 8.17184e-07, No Iterations 11
time step continuity errors : sum local = 2.25035e-11, global = -1.46831e-12, cumulative = 2.91606e-06
smoothSolver:  Solving for omega, Initial residual = 0.000184085, Final residual = 2.5269e-07, No Iterations 1
smoothSolver:  Solving for k, Initial residual = 0.000719622, Final residual = 8.72477e-07, No Iterations 1
ExecutionTime = 4.09 s  ClockTime = 5 s

forces forces1 write:
    Sum of forces
        Total    : (22.6961 -0.00446101 2.18558)
        Pressure : (22.6467 -0.00459872 2.1818)
        Viscous  : (0.0493532 0.000137711 0.0037827)
    Sum of moments
        Total    : (-1.11673 1.69255 11.3062)
        Pressure : (-1.11477 1.69096 11.2815)
        Viscous  : (-0.00196419 0.001591 0.0246987)
Courant Number mean: 0.0157189 max: 0.499976
deltaT = 5.19924e-05
Time = 0.00590462

PIMPLE: iteration 1
smoothSolver:  Solving for Ux, Initial residual = 3.34216e-07, Final residual = 3.34216e-07, No Iterations 0
smoothSolver:  Solving for Uy, Initial residual = 5.47713e-07, Final residual = 5.47713e-07, No Iterations 0
smoothSolver:  Solving for Uz, Initial residual = 4.92287e-07, Final residual = 4.92287e-07, No Iterations 0
GAMG:  Solving for p, Initial residual = 0.999988, Final residual = 0.0381455, No Iterations 1
GAMG:  Solving for p, Initial residual = 0.051691, Final residual = 0.0042495, No Iterations 1
time step continuity errors : sum local = 1.81791e-06, global = 1.37415e-07, cumulative = 3.05347e-06
GAMG:  Solving for p, Initial residual = 0.999788, Final residual = 0.038138, No Iterations 1
GAMG:  Solving for p, Initial residual = 0.0516859, Final residual = 4.44658e-07, No Iterations 11
time step continuity errors : sum local = 1.90222e-10, global = 1.15902e-11, cumulative = 3.05348e-06
PIMPLE: iteration 2
smoothSolver:  Solving for Ux, Initial residual = 0.0232843, Final residual = 2.49642e-08, No Iterations 2
smoothSolver:  Solving for Uy, Initial residual = 0.0406196, Final residual = 3.23264e-08, No Iterations 2
smoothSolver:  Solving for Uz, Initial residual = 0.0345604, Final residual = 3.08307e-08, No Iterations 2
GAMG:  Solving for p, Initial residual = 0.772593, Final residual = 0.029667, No Iterations 1
GAMG:  Solving for p, Initial residual = 0.322947, Final residual = 0.0265439, No Iterations 1
time step continuity errors : sum local = 1.80991e-06, global = -1.32849e-07, cumulative = 2.92063e-06
GAMG:  Solving for p, Initial residual = 0.106931, Final residual = 0.00592839, No Iterations 2
GAMG:  Solving for p, Initial residual = 0.120625, Final residual = 8.18416e-07, No Iterations 11
time step continuity errors : sum local = 2.23162e-11, global = -1.45601e-12, cumulative = 2.92063e-06
smoothSolver:  Solving for omega, Initial residual = 0.00018235, Final residual = 2.50754e-07, No Iterations 1
smoothSolver:  Solving for k, Initial residual = 0.00071362, Final residual = 8.65211e-07, No Iterations 1
ExecutionTime = 4.12 s  ClockTime = 5 s

forces forces1 write:
    Sum of forces
        Total    : (22.6708 -0.00454038 2.17723)
        Pressure : (22.6216 -0.0046801 2.17339)
        Viscous  : (0.0492195 0.000139712 0.00384234)
    Sum of moments
        Total    : (-1.11432 1.68975 11.2952)
        Pressure : (-1.11233 1.68815 11.2706)
        Viscous  : (-0.00199436 0.00159471 0.0246336)
Courant Number mean: 0.0157195 max: 0.499974
deltaT = 5.19952e-05
Time = 0.00595662

PIMPLE: iteration 1
smoothSolver:  Solving for Ux, Initial residual = 3.29318e-07, Final residual = 3.29318e-07, No Iterations 0
smoothSolver:  Solving for Uy, Initial residual = 5.45651e-07, Final residual = 5.45651e-07, No Iterations 0
smoothSolver:  Solving for Uz, Initial residual = 4.89987e-07, Final residual = 4.89987e-07, No Iterations 0
GAMG:  Solving for p, Initial residual = 0.999988, Final residual = 0.0381473, No Iterations 1
GAMG:  Solving for p, Initial residual = 0.0517233, Final residual = 0.0042542, No Iterations 1
time step continuity errors : sum local = 1.80707e-06, global = 1.36528e-07, cumulative = 3.05716e-06
GAMG:  Solving for p, Initial residual = 0.999788, Final residual = 0.0381398, No Iterations 1
GAMG:  Solving for p, Initial residual = 0.0517182, Final residual = 4.44181e-07, No Iterations 11
time step continuity errors : sum local = 1.88676e-10, global = 1.14994e-11, cumulative = 3.05717e-06
PIMPLE: iteration 2
smoothSolver:  Solving for Ux, Initial residual = 0.0230791, Final residual = 2.4808e-08, No Iterations 2
smoothSolver:  Solving for Uy, Initial residual = 0.0406699, Final residual = 3.24375e-08, No Iterations 2
smoothSolver:  Solving for Uz, Initial residual = 0.0345557, Final residual = 3.0917e-08, No Iterations 2
GAMG:  Solving for p, Initial residual = 0.772698, Final residual = 0.0296718, No Iterations 1
GAMG:  Solving for p, Initial residual = 0.323428, Final residual = 0.0265946, No Iterations 1
time step continuity errors : sum local = 1.79894e-06, global = -1.32015e-07, cumulative = 2.92516e-06
GAMG:  Solving for p, Initial residual = 0.106985, Final residual = 0.00592509, No Iterations 2
GAMG:  Solving for p, Initial residual = 0.120724, Final residual = 8.19607e-07, No Iterations 11
time step continuity errors : sum local = 2.21316e-11, global = -1.4439e-12, cumulative = 2.92516e-06
smoothSolver:  Solving for omega, Initial residual = 0.000180647, Final residual = 2.48849e-07, No Iterations 1
smoothSolver:  Solving for k, Initial residual = 0.000707818, Final residual = 8.58211e-07, No Iterations 1
ExecutionTime = 4.15 s  ClockTime = 5 s

forces forces1 write:
    Sum of forces
        Total    : (22.6406 -0.00455921 2.17523)
        Pressure : (22.5915 -0.00470103 2.17133)
        Viscous  : (0.0490864 0.000141829 0.0039013)
    Sum of moments
        Total    : (-1.11329 1.68688 11.2813)
        Pressure : (-1.11127 1.68528 11.2567)
        Viscous  : (-0.00202417 0.00159838 0.0245687)
Courant Number mean: 0.0157202 max: 0.499972
deltaT = 5.19981e-05
Time = 0.00600862

PIMPLE: iteration 1
smoothSolver:  Solving for Ux, Initial residual = 3.24521e-07, Final residual = 3.24521e-07, No Iterations 0
smoothSolver:  Solving for Uy, Initial residual = 5.43594e-07, Final residual = 5.43594e-07, No Iterations 0
smoothSolver:  Solving for Uz, Initial residual = 4.87705e-07, Final residual = 4.87705e-07, No Iterations 0
GAMG:  Solving for p, Initial residual = 0.999988, Final residual = 0.0381487, No Iterations 1
GAMG:  Solving for p, Initial residual = 0.0517552, Final residual = 0.0042589, No Iterations 1
time step continuity errors : sum local = 1.79635e-06, global = 1.3564e-07, cumulative = 3.0608e-06
GAMG:  Solving for p, Initial residual = 0.999789, Final residual = 0.0381412, No Iterations 1
GAMG:  Solving for p, Initial residual = 0.0517501, Final residual = 4.43711e-07, No Iterations 11
time step continuity errors : sum local = 1.87152e-10, global = 1.14096e-11, cumulative = 3.06081e-06
PIMPLE: iteration 2
smoothSolver:  Solving for Ux, Initial residual = 0.0228752, Final residual = 2.46527e-08, No Iterations 2
smoothSolver:  Solving for Uy, Initial residual = 0.0407187, Final residual = 3.25507e-08, No Iterations 2
smoothSolver:  Solving for Uz, Initial residual = 0.0345496, Final residual = 3.10031e-08, No Iterations 2
GAMG:  Solving for p, Initial residual = 0.772801, Final residual = 0.0296769, No Iterations 1
GAMG:  Solving for p, Initial residual = 0.323899, Final residual = 0.0266448, No Iterations 1
time step continuity errors : sum local = 1.7881e-06, global = -1.31182e-07, cumulative = 2.92963e-06
GAMG:  Solving for p, Initial residual = 0.107043, Final residual = 0.00592199, No Iterations 2
GAMG:  Solving for p, Initial residual = 0.12082, Final residual = 8.20768e-07, No Iterations 11
time step continuity errors : sum local = 2.19496e-11, global = -1.43194e-12, cumulative = 2.92962e-06
smoothSolver:  Solving for omega, Initial residual = 0.000178979, Final residual = 2.46976e-07, No Iterations 1
smoothSolver:  Solving for k, Initial residual = 0.000702223, Final residual = 8.5146e-07, No Iterations 1
ExecutionTime = 4.18 s  ClockTime = 5 s

forces forces1 write:
    Sum of forces
        Total    : (22.6023 -0.00465747 2.17709)
        Pressure : (22.5534 -0.00480153 2.17313)
        Viscous  : (0.0489535 0.000144056 0.0039598)
    Sum of moments
        Total    : (-1.11561 1.68349 11.2653)
        Pressure : (-1.11356 1.68189 11.2408)
        Viscous  : (-0.00205368 0.00160199 0.0245042)
Courant Number mean: 0.015721 max: 0.499969
deltaT = 5.20013e-05
Time = 0.00606062

PIMPLE: iteration 1
smoothSolver:  Solving for Ux, Initial residual = 3.19808e-07, Final residual = 3.19808e-07, No Iterations 0
smoothSolver:  Solving for Uy, Initial residual = 5.4156e-07, Final residual = 5.4156e-07, No Iterations 0
smoothSolver:  Solving for Uz, Initial residual = 4.85448e-07, Final residual = 4.85448e-07, No Iterations 0
GAMG:  Solving for p, Initial residual = 0.999988, Final residual = 0.0381501, No Iterations 1
GAMG:  Solving for p, Initial residual = 0.0517871, Final residual = 0.00426356, No Iterations 1
time step continuity errors : sum local = 1.78572e-06, global = 1.34751e-07, cumulative = 3.06438e-06
GAMG:  Solving for p, Initial residual = 0.999789, Final residual = 0.0381426, No Iterations 1
GAMG:  Solving for p, Initial residual = 0.051782, Final residual = 4.43246e-07, No Iterations 11
time step continuity errors : sum local = 1.85647e-10, global = 1.13206e-11, cumulative = 3.06439e-06
PIMPLE: iteration 2
smoothSolver:  Solving for Ux, Initial residual = 0.0226729, Final residual = 2.44983e-08, No Iterations 2
smoothSolver:  Solving for Uy, Initial residual = 0.0407663, Final residual = 3.26622e-08, No Iterations 2
smoothSolver:  Solving for Uz, Initial residual = 0.0345418, Final residual = 3.10886e-08, No Iterations 2
GAMG:  Solving for p, Initial residual = 0.772913, Final residual = 0.0296826, No Iterations 1
GAMG:  Solving for p, Initial residual = 0.324353, Final residual = 0.0266946, No Iterations 1
time step continuity errors : sum local = 1.77738e-06, global = -1.3035e-07, cumulative = 2.93404e-06
GAMG:  Solving for p, Initial residual = 0.107098, Final residual = 0.0059187, No Iterations 2
GAMG:  Solving for p, Initial residual = 0.120913, Final residual = 8.21909e-07, No Iterations 11
time step continuity errors : sum local = 2.17703e-11, global = -1.42016e-12, cumulative = 2.93404e-06
smoothSolver:  Solving for omega, Initial residual = 0.000177346, Final residual = 2.45144e-07, No Iterations 1
smoothSolver:  Solving for k, Initial residual = 0.000696826, Final residual = 8.44939e-07, No Iterations 1
ExecutionTime = 4.21 s  ClockTime = 5 s

forces forces1 write:
    Sum of forces
        Total    : (22.5776 -0.00472825 2.18334)
        Pressure : (22.5288 -0.00487467 2.17932)
        Viscous  : (0.0488207 0.00014642 0.00401842)
    Sum of moments
        Total    : (-1.11878 1.68136 11.2536)
        Pressure : (-1.1167 1.67976 11.2292)
        Viscous  : (-0.00208345 0.00160557 0.0244399)
Courant Number mean: 0.0157219 max: 0.499965
deltaT = 5.20049e-05
Time = 0.00611262

PIMPLE: iteration 1
smoothSolver:  Solving for Ux, Initial residual = 3.15163e-07, Final residual = 3.15163e-07, No Iterations 0
smoothSolver:  Solving for Uy, Initial residual = 5.39526e-07, Final residual = 5.39526e-07, No Iterations 0
smoothSolver:  Solving for Uz, Initial residual = 4.83203e-07, Final residual = 4.83203e-07, No Iterations 0
GAMG:  Solving for p, Initial residual = 0.999988, Final residual = 0.0381515, No Iterations 1
GAMG:  Solving for p, Initial residual = 0.0518184, Final residual = 0.00426827, No Iterations 1
time step continuity errors : sum local = 1.77523e-06, global = 1.33864e-07, cumulative = 3.0679e-06
GAMG:  Solving for p, Initial residual = 0.999789, Final residual = 0.0381441, No Iterations 1
GAMG:  Solving for p, Initial residual = 0.0518133, Final residual = 4.42793e-07, No Iterations 11
time step continuity errors : sum local = 1.84163e-10, global = 1.12325e-11, cumulative = 3.06791e-06
PIMPLE: iteration 2
smoothSolver:  Solving for Ux, Initial residual = 0.022472, Final residual = 2.43446e-08, No Iterations 2
smoothSolver:  Solving for Uy, Initial residual = 0.0408123, Final residual = 3.27729e-08, No Iterations 2
[SOLVER] failed (exit code: 1)
