[WORKFLOW] Applying settings...
[SETTINGS] Updated controlDict: solver=pimpleFoam, endTime=0.1
[SETTINGS] Updated transportProperties: nu=1.5e-05
[SETTINGS] Updated turbulenceProperties: model=kOmegaSST
[WORKFLOW] Starting solver...
[SOLVER] Running pimpleFoam...
[SOLVER] Running: pimpleFoam
/*---------------------------------------------------------------------------*\
| =========                 |                                                 |
| \\      /  F ield         | OpenFOAM: The Open Source CFD Toolbox           |
|  \\    /   O peration     | Version:  2506                                  |
|   \\  /    A nd           | Website:  www.openfoam.com                      |
|    \\/     M anipulation  |                                                 |
\*---------------------------------------------------------------------------*/
Build  : _615aae61-20250627 OPENFOAM=2506 version=2506
Arch   : "LSB;label=32;scalar=64"
Exec   : pimpleFoam
Date   : Jan 24 2026
Time   : 18:43:53
Host   : Vortex-Eclipse
PID    : 238731
I/O    : uncollated
Case   : /home/reen/openfoam/Tutorials/Rotating_Setup_Case/OpenFOAM_GUI/WindTunnelGUI/runs/Run_1_20260124_184351/windTunnelCase
nProcs : 1
trapFpe: Floating point exception trapping enabled (FOAM_SIGFPE).
fileModificationChecking : Monitoring run-time modified files using timeStampMaster (fileModificationSkew 5, maxFileModificationPolls 20)
allowSystemOperations : Allowing user-supplied system call operations

// * * * * * * * * * * * * * * * * * * * * * * * * * * * * * * * * * * * * * //
Create time

Create mesh for time = 0


PIMPLE: no residual control data found. Calculations will employ 2 corrector loops

Reading field p

Reading field U

Reading/calculating face flux field phi

Selecting incompressible transport model Newtonian
Selecting turbulence model type RAS
Selecting RAS turbulence model kOmegaSST
Selecting patchDistMethod meshWave
RAS
{
    RASModel        kOmegaSST;
    turbulence      on;
    printCoeffs     on;
    alphaK1         0.85;
    alphaK2         1;
    alphaOmega1     0.5;
    alphaOmega2     0.856;
    gamma1          0.555556;
    gamma2          0.44;
    beta1           0.075;
    beta2           0.0828;
    betaStar        0.09;
    a1              0.31;
    b1              1;
    c1              10;
    F3              false;
    decayControl    false;
    kInf            0;
    omegaInf        0;
}

No MRF models present

No finite volume options present
Courant Number mean: 1.30588e-05 max: 0.00273856
Courant Number mean: 1.30588e-05 max: 0.00273856

Starting time loop

Courant Number mean: 1.30588e-05 max: 0.00273856
deltaT = 1.2e-05
Time = 1.2e-05

PIMPLE: iteration 1
smoothSolver:  Solving for Ux, Initial residual = 1, Final residual = 1.59557e-16, No Iterations 1
smoothSolver:  Solving for Uy, Initial residual = 0, Final residual = 0, No Iterations 0
smoothSolver:  Solving for Uz, Initial residual = 0, Final residual = 0, No Iterations 0
GAMG:  Solving for p, Initial residual = 1, Final residual = 0.0544387, No Iterations 6
GAMG:  Solving for p, Initial residual = 0.152154, Final residual = 0.00613032, No Iterations 1
time step continuity errors : sum local = 4.22458e-05, global = -1.49673e-07, cumulative = -1.49673e-07
GAMG:  Solving for p, Initial residual = 0.975764, Final residual = 0.0530986, No Iterations 6
GAMG:  Solving for p, Initial residual = 0.152138, Final residual = 6.05965e-07, No Iterations 11
time step continuity errors : sum local = 4.17589e-09, global = 7.3252e-10, cumulative = -1.48941e-07
PIMPLE: iteration 2
smoothSolver:  Solving for Ux, Initial residual = 0.999982, Final residual = 1.27623e-09, No Iterations 2
smoothSolver:  Solving for Uy, Initial residual = 0.999799, Final residual = 1.37979e-09, No Iterations 2
smoothSolver:  Solving for Uz, Initial residual = 0.999799, Final residual = 1.56584e-09, No Iterations 2
GAMG:  Solving for p, Initial residual = 0.0154504, Final residual = 0.000746645, No Iterations 1
GAMG:  Solving for p, Initial residual = 0.00225539, Final residual = 0.000210631, No Iterations 1
time step continuity errors : sum local = 1.63366e-06, global = -1.3279e-07, cumulative = -2.8173e-07
GAMG:  Solving for p, Initial residual = 0.000864726, Final residual = 4.905e-05, No Iterations 2
GAMG:  Solving for p, Initial residual = 0.000657057, Final residual = 9.3526e-07, No Iterations 5
time step continuity errors : sum local = 7.32512e-09, global = -7.20177e-10, cumulative = -2.82451e-07
smoothSolver:  Solving for omega, Initial residual = 0.00104026, Final residual = 2.91e-08, No Iterations 1
smoothSolver:  Solving for k, Initial residual = 1, Final residual = 1.6307e-09, No Iterations 2
ExecutionTime = 0.25 s  ClockTime = 0 s

Courant Number mean: 0.00363184 max: 0.176665
deltaT = 1.44e-05
Time = 2.64e-05

PIMPLE: iteration 1
smoothSolver:  Solving for Ux, Initial residual = 0.000387733, Final residual = 2.76706e-16, No Iterations 1
smoothSolver:  Solving for Uy, Initial residual = 5.97364e-05, Final residual = 4.19694e-17, No Iterations 1
smoothSolver:  Solving for Uz, Initial residual = 5.93045e-05, Final residual = 4.17898e-17, No Iterations 1
GAMG:  Solving for p, Initial residual = 0.99879, Final residual = 0.0472663, No Iterations 1
GAMG:  Solving for p, Initial residual = 0.0639107, Final residual = 0.00398104, No Iterations 2
time step continuity errors : sum local = 5.03012e-06, global = 5.13031e-07, cumulative = 2.30581e-07
GAMG:  Solving for p, Initial residual = 0.998686, Final residual = 0.0472616, No Iterations 1
GAMG:  Solving for p, Initial residual = 0.0639027, Final residual = 9.32306e-07, No Iterations 12
time step continuity errors : sum local = 1.17802e-09, global = 2.08129e-10, cumulative = 2.30789e-07
PIMPLE: iteration 2
smoothSolver:  Solving for Ux, Initial residual = 0.861359, Final residual = 8.63573e-10, No Iterations 2
smoothSolver:  Solving for Uy, Initial residual = 0.350283, Final residual = 4.07361e-10, No Iterations 2
smoothSolver:  Solving for Uz, Initial residual = 0.347576, Final residual = 4.94357e-10, No Iterations 2
GAMG:  Solving for p, Initial residual = 0.041478, Final residual = 0.00309709, No Iterations 3
GAMG:  Solving for p, Initial residual = 0.592959, Final residual = 0.0239389, No Iterations 1
time step continuity errors : sum local = 5.42017e-05, global = 2.52008e-06, cumulative = 2.75087e-06
GAMG:  Solving for p, Initial residual = 0.151864, Final residual = 0.0135906, No Iterations 1
GAMG:  Solving for p, Initial residual = 0.0785189, Final residual = 6.70447e-07, No Iterations 12
time step continuity errors : sum local = 4.66192e-10, global = 7.97842e-11, cumulative = 2.75095e-06
smoothSolver:  Solving for omega, Initial residual = 0.00112859, Final residual = 3.61656e-08, No Iterations 1
smoothSolver:  Solving for k, Initial residual = 0.366897, Final residual = 9.27289e-10, No Iterations 2
ExecutionTime = 0.39 s  ClockTime = 0 s

Courant Number mean: 0.00438598 max: 0.20801
deltaT = 1.728e-05
Time = 4.368e-05

PIMPLE: iteration 1
smoothSolver:  Solving for Ux, Initial residual = 9.49655e-06, Final residual = 2.70908e-16, No Iterations 1
smoothSolver:  Solving for Uy, Initial residual = 7.62937e-06, Final residual = 4.11384e-17, No Iterations 1
smoothSolver:  Solving for Uz, Initial residual = 7.11651e-06, Final residual = 3.98703e-17, No Iterations 1
GAMG:  Solving for p, Initial residual = 0.999863, Final residual = 0.0445318, No Iterations 1
GAMG:  Solving for p, Initial residual = 0.0565207, Final residual = 0.00355024, No Iterations 2
time step continuity errors : sum local = 4.31246e-06, global = 4.22056e-07, cumulative = 3.173e-06
GAMG:  Solving for p, Initial residual = 0.999639, Final residual = 0.044522, No Iterations 1
GAMG:  Solving for p, Initial residual = 0.0565138, Final residual = 8.01666e-07, No Iterations 12
time step continuity errors : sum local = 9.73804e-10, global = 1.72118e-10, cumulative = 3.17318e-06
PIMPLE: iteration 2
smoothSolver:  Solving for Ux, Initial residual = 0.302111, Final residual = 6.10191e-10, No Iterations 2
smoothSolver:  Solving for Uy, Initial residual = 0.166195, Final residual = 2.40233e-10, No Iterations 2
smoothSolver:  Solving for Uz, Initial residual = 0.1624, Final residual = 2.8461e-10, No Iterations 2
GAMG:  Solving for p, Initial residual = 0.483307, Final residual = 0.0208862, No Iterations 1
GAMG:  Solving for p, Initial residual = 0.11715, Final residual = 0.00652622, No Iterations 2
time step continuity errors : sum local = 5.65635e-06, global = -6.06967e-07, cumulative = 2.56621e-06
GAMG:  Solving for p, Initial residual = 0.181232, Final residual = 0.0090743, No Iterations 1
GAMG:  Solving for p, Initial residual = 0.0270369, Final residual = 5.83027e-07, No Iterations 11
time step continuity errors : sum local = 2.17072e-10, global = -1.64131e-11, cumulative = 2.56619e-06
smoothSolver:  Solving for omega, Initial residual = 0.00129005, Final residual = 5.92852e-08, No Iterations 1
smoothSolver:  Solving for k, Initial residual = 0.2654, Final residual = 1.41328e-09, No Iterations 2
ExecutionTime = 0.52 s  ClockTime = 0 s

Courant Number mean: 0.00526024 max: 0.24201
deltaT = 2.0736e-05
Time = 6.4416e-05

PIMPLE: iteration 1
smoothSolver:  Solving for Ux, Initial residual = 3.87117e-06, Final residual = 2.73225e-16, No Iterations 1
smoothSolver:  Solving for Uy, Initial residual = 2.61052e-06, Final residual = 4.03413e-17, No Iterations 1
smoothSolver:  Solving for Uz, Initial residual = 2.5047e-06, Final residual = 3.97476e-17, No Iterations 1
GAMG:  Solving for p, Initial residual = 0.999941, Final residual = 0.0431102, No Iterations 1
GAMG:  Solving for p, Initial residual = 0.05415, Final residual = 0.00330574, No Iterations 2
time step continuity errors : sum local = 4.32227e-06, global = 4.33525e-07, cumulative = 2.99972e-06
GAMG:  Solving for p, Initial residual = 0.999714, Final residual = 0.0431005, No Iterations 1
GAMG:  Solving for p, Initial residual = 0.0541435, Final residual = 7.69402e-07, No Iterations 12
time step continuity errors : sum local = 1.00602e-09, global = 1.78049e-10, cumulative = 2.99989e-06
PIMPLE: iteration 2
smoothSolver:  Solving for Ux, Initial residual = 0.225913, Final residual = 9.03646e-10, No Iterations 2
smoothSolver:  Solving for Uy, Initial residual = 0.114393, Final residual = 3.45124e-10, No Iterations 2
smoothSolver:  Solving for Uz, Initial residual = 0.111966, Final residual = 3.84939e-10, No Iterations 2
GAMG:  Solving for p, Initial residual = 0.47076, Final residual = 0.0201262, No Iterations 1
GAMG:  Solving for p, Initial residual = 0.110387, Final residual = 0.00659747, No Iterations 2
time step continuity errors : sum local = 4.79479e-06, global = -4.90692e-07, cumulative = 2.5092e-06
GAMG:  Solving for p, Initial residual = 0.18981, Final residual = 0.0093791, No Iterations 1
GAMG:  Solving for p, Initial residual = 0.0275255, Final residual = 5.97793e-07, No Iterations 11
time step continuity errors : sum local = 1.82994e-10, global = -9.91345e-12, cumulative = 2.50919e-06
smoothSolver:  Solving for omega, Initial residual = 0.00148142, Final residual = 9.7206e-08, No Iterations 1
smoothSolver:  Solving for k, Initial residual = 0.192818, Final residual = 2.14958e-09, No Iterations 2
ExecutionTime = 0.66 s  ClockTime = 1 s

Courant Number mean: 0.00630935 max: 0.281513
deltaT = 2.4419e-05
Time = 8.8835e-05

PIMPLE: iteration 1
smoothSolver:  Solving for Ux, Initial residual = 2.5536e-06, Final residual = 2.79535e-16, No Iterations 1
smoothSolver:  Solving for Uy, Initial residual = 1.76749e-06, Final residual = 4.01293e-17, No Iterations 1
smoothSolver:  Solving for Uz, Initial residual = 1.7193e-06, Final residual = 3.99288e-17, No Iterations 1
GAMG:  Solving for p, Initial residual = 0.999956, Final residual = 0.0420301, No Iterations 1
GAMG:  Solving for p, Initial residual = 0.0525226, Final residual = 0.00311716, No Iterations 2
time step continuity errors : sum local = 4.40713e-06, global = 4.4915e-07, cumulative = 2.95834e-06
GAMG:  Solving for p, Initial residual = 0.99973, Final residual = 0.0420207, No Iterations 1
GAMG:  Solving for p, Initial residual = 0.0525163, Final residual = 7.39227e-07, No Iterations 12
time step continuity errors : sum local = 1.04516e-09, global = 1.8517e-10, cumulative = 2.95853e-06
PIMPLE: iteration 2
smoothSolver:  Solving for Ux, Initial residual = 0.18863, Final residual = 1.37289e-09, No Iterations 2
smoothSolver:  Solving for Uy, Initial residual = 0.0987284, Final residual = 5.46939e-10, No Iterations 2
smoothSolver:  Solving for Uz, Initial residual = 0.0963136, Final residual = 5.93454e-10, No Iterations 2
GAMG:  Solving for p, Initial residual = 0.493255, Final residual = 0.0206489, No Iterations 1
GAMG:  Solving for p, Initial residual = 0.116293, Final residual = 0.00677171, No Iterations 2
time step continuity errors : sum local = 4.72927e-06, global = -4.92224e-07, cumulative = 2.4663e-06
GAMG:  Solving for p, Initial residual = 0.200197, Final residual = 0.00989775, No Iterations 1
GAMG:  Solving for p, Initial residual = 0.0292324, Final residual = 6.35523e-07, No Iterations 11
time step continuity errors : sum local = 1.79649e-10, global = -9.33385e-12, cumulative = 2.4663e-06
smoothSolver:  Solving for omega, Initial residual = 0.00166962, Final residual = 1.50441e-07, No Iterations 1
smoothSolver:  Solving for k, Initial residual = 0.149406, Final residual = 3.24606e-09, No Iterations 2
ExecutionTime = 0.8 s  ClockTime = 1 s

Courant Number mean: 0.00742698 max: 0.321666
deltaT = 2.82147e-05
Time = 0.00011705

PIMPLE: iteration 1
smoothSolver:  Solving for Ux, Initial residual = 1.89819e-06, Final residual = 2.82656e-16, No Iterations 1
smoothSolver:  Solving for Uy, Initial residual = 1.43842e-06, Final residual = 4.04841e-17, No Iterations 1
smoothSolver:  Solving for Uz, Initial residual = 1.39857e-06, Final residual = 3.98752e-17, No Iterations 1
GAMG:  Solving for p, Initial residual = 0.999964, Final residual = 0.0412029, No Iterations 1
GAMG:  Solving for p, Initial residual = 0.0513031, Final residual = 0.00296232, No Iterations 2
time step continuity errors : sum local = 4.50052e-06, global = 4.64399e-07, cumulative = 2.93069e-06
GAMG:  Solving for p, Initial residual = 0.999739, Final residual = 0.0411938, No Iterations 1
GAMG:  Solving for p, Initial residual = 0.051297, Final residual = 7.1264e-07, No Iterations 12
time step continuity errors : sum local = 1.0827e-09, global = 1.92003e-10, cumulative = 2.93089e-06
PIMPLE: iteration 2
smoothSolver:  Solving for Ux, Initial residual = 0.162775, Final residual = 1.98302e-09, No Iterations 2
smoothSolver:  Solving for Uy, Initial residual = 0.0888636, Final residual = 8.30571e-10, No Iterations 2
smoothSolver:  Solving for Uz, Initial residual = 0.0864644, Final residual = 8.81924e-10, No Iterations 2
GAMG:  Solving for p, Initial residual = 0.514695, Final residual = 0.0211606, No Iterations 1
GAMG:  Solving for p, Initial residual = 0.122061, Final residual = 0.00692689, No Iterations 2
time step continuity errors : sum local = 4.75625e-06, global = -5.00332e-07, cumulative = 2.43055e-06
GAMG:  Solving for p, Initial residual = 0.209304, Final residual = 0.0103565, No Iterations 1
GAMG:  Solving for p, Initial residual = 0.0307743, Final residual = 6.68874e-07, No Iterations 11
time step continuity errors : sum local = 1.79736e-10, global = -9.17359e-12, cumulative = 2.43055e-06
smoothSolver:  Solving for omega, Initial residual = 0.00184354, Final residual = 2.19359e-07, No Iterations 1
smoothSolver:  Solving for k, Initial residual = 0.12092, Final residual = 4.73014e-09, No Iterations 2
ExecutionTime = 0.93 s  ClockTime = 1 s

Courant Number mean: 0.00857832 max: 0.36488
deltaT = 3.2081e-05
Time = 0.000149131

PIMPLE: iteration 1
smoothSolver:  Solving for Ux, Initial residual = 1.54365e-06, Final residual = 2.82774e-16, No Iterations 1
smoothSolver:  Solving for Uy, Initial residual = 1.27067e-06, Final residual = 4.04465e-17, No Iterations 1
smoothSolver:  Solving for Uz, Initial residual = 1.23212e-06, Final residual = 3.98458e-17, No Iterations 1
GAMG:  Solving for p, Initial residual = 0.999969, Final residual = 0.0405443, No Iterations 1
GAMG:  Solving for p, Initial residual = 0.0503595, Final residual = 0.00283186, No Iterations 2
time step continuity errors : sum local = 4.58739e-06, global = 4.77929e-07, cumulative = 2.90847e-06
GAMG:  Solving for p, Initial residual = 0.999744, Final residual = 0.0405353, No Iterations 1
GAMG:  Solving for p, Initial residual = 0.0503535, Final residual = 6.88943e-07, No Iterations 12
time step continuity errors : sum local = 1.11605e-09, global = 1.98098e-10, cumulative = 2.90867e-06
PIMPLE: iteration 2
smoothSolver:  Solving for Ux, Initial residual = 0.143642, Final residual = 2.73904e-09, No Iterations 2
smoothSolver:  Solving for Uy, Initial residual = 0.081766, Final residual = 1.20556e-09, No Iterations 2
smoothSolver:  Solving for Uz, Initial residual = 0.0793587, Final residual = 1.2599e-09, No Iterations 2
GAMG:  Solving for p, Initial residual = 0.533843, Final residual = 0.0216236, No Iterations 1
GAMG:  Solving for p, Initial residual = 0.127638, Final residual = 0.00706281, No Iterations 2
time step continuity errors : sum local = 4.80355e-06, global = -5.09799e-07, cumulative = 2.39887e-06
GAMG:  Solving for p, Initial residual = 0.217333, Final residual = 0.0107646, No Iterations 1
GAMG:  Solving for p, Initial residual = 0.0321682, Final residual = 6.99179e-07, No Iterations 11
time step continuity errors : sum local = 1.80691e-10, global = -8.99573e-12, cumulative = 2.39887e-06
smoothSolver:  Solving for omega, Initial residual = 0.00199853, Final residual = 3.04123e-07, No Iterations 1
smoothSolver:  Solving for k, Initial residual = 0.10075, Final residual = 6.63071e-09, No Iterations 2
ExecutionTime = 1.07 s  ClockTime = 1 s

Courant Number mean: 0.00975054 max: 0.407734
deltaT = 3.6015e-05
Time = 0.000185146

PIMPLE: iteration 1
smoothSolver:  Solving for Ux, Initial residual = 1.35891e-06, Final residual = 2.89693e-16, No Iterations 1
smoothSolver:  Solving for Uy, Initial residual = 1.18395e-06, Final residual = 4.05803e-17, No Iterations 1
smoothSolver:  Solving for Uz, Initial residual = 1.14445e-06, Final residual = 4.00048e-17, No Iterations 1
GAMG:  Solving for p, Initial residual = 0.999973, Final residual = 0.0400055, No Iterations 1
GAMG:  Solving for p, Initial residual = 0.0496229, Final residual = 0.00272007, No Iterations 2
time step continuity errors : sum local = 4.66559e-06, global = 4.89741e-07, cumulative = 2.88861e-06
GAMG:  Solving for p, Initial residual = 0.999748, Final residual = 0.0399966, No Iterations 1
GAMG:  Solving for p, Initial residual = 0.049617, Final residual = 6.67693e-07, No Iterations 12
time step continuity errors : sum local = 1.14528e-09, global = 2.03468e-10, cumulative = 2.88881e-06
PIMPLE: iteration 2
smoothSolver:  Solving for Ux, Initial residual = 0.128911, Final residual = 3.64481e-09, No Iterations 2
smoothSolver:  Solving for Uy, Initial residual = 0.0763515, Final residual = 1.68454e-09, No Iterations 2
smoothSolver:  Solving for Uz, Initial residual = 0.0739335, Final residual = 1.73708e-09, No Iterations 2
GAMG:  Solving for p, Initial residual = 0.550923, Final residual = 0.0220439, No Iterations 1
GAMG:  Solving for p, Initial residual = 0.133025, Final residual = 0.00718488, No Iterations 2
time step continuity errors : sum local = 4.85785e-06, global = -5.19036e-07, cumulative = 2.36977e-06
GAMG:  Solving for p, Initial residual = 0.224537, Final residual = 0.0111327, No Iterations 1
GAMG:  Solving for p, Initial residual = 0.033458, Final residual = 7.27324e-07, No Iterations 11
time step continuity errors : sum local = 1.81976e-10, global = -8.82372e-12, cumulative = 2.36976e-06
smoothSolver:  Solving for omega, Initial residual = 0.00213362, Final residual = 4.05484e-07, No Iterations 1
smoothSolver:  Solving for k, Initial residual = 0.0857377, Final residual = 9.0739e-09, No Iterations 2
ExecutionTime = 1.2 s  ClockTime = 1 s

Courant Number mean: 0.0109428 max: 0.449448
deltaT = 4.00216e-05
Time = 0.000225167

PIMPLE: iteration 1
smoothSolver:  Solving for Ux, Initial residual = 1.2778e-06, Final residual = 2.94497e-16, No Iterations 1
smoothSolver:  Solving for Uy, Initial residual = 1.14511e-06, Final residual = 4.0251e-17, No Iterations 1
smoothSolver:  Solving for Uz, Initial residual = 1.10317e-06, Final residual = 3.97213e-17, No Iterations 1
GAMG:  Solving for p, Initial residual = 0.999975, Final residual = 0.0395526, No Iterations 1
GAMG:  Solving for p, Initial residual = 0.0490427, Final residual = 0.00262334, No Iterations 2
time step continuity errors : sum local = 4.736e-06, global = 5.00037e-07, cumulative = 2.8698e-06
GAMG:  Solving for p, Initial residual = 0.999752, Final residual = 0.0395438, No Iterations 1
GAMG:  Solving for p, Initial residual = 0.049037, Final residual = 6.48587e-07, No Iterations 12
time step continuity errors : sum local = 1.17094e-09, global = 2.08213e-10, cumulative = 2.87001e-06
PIMPLE: iteration 2
smoothSolver:  Solving for Ux, Initial residual = 0.117252, Final residual = 4.71093e-09, No Iterations 2
smoothSolver:  Solving for Uy, Initial residual = 0.0720572, Final residual = 2.288e-09, No Iterations 2
smoothSolver:  Solving for Uz, Initial residual = 0.0696356, Final residual = 2.32848e-09, No Iterations 2
GAMG:  Solving for p, Initial residual = 0.566278, Final residual = 0.0224279, No Iterations 1
GAMG:  Solving for p, Initial residual = 0.13821, Final residual = 0.00729513, No Iterations 2
time step continuity errors : sum local = 4.91259e-06, global = -5.27954e-07, cumulative = 2.34206e-06
GAMG:  Solving for p, Initial residual = 0.231023, Final residual = 0.0114657, No Iterations 1
GAMG:  Solving for p, Initial residual = 0.0346503, Final residual = 7.53696e-07, No Iterations 11
time step continuity errors : sum local = 1.83392e-10, global = -8.61373e-12, cumulative = 2.34205e-06
smoothSolver:  Solving for omega, Initial residual = 0.00224866, Final residual = 5.24986e-07, No Iterations 1
smoothSolver:  Solving for k, Initial residual = 0.0741093, Final residual = 1.20876e-08, No Iterations 2
ExecutionTime = 1.33 s  ClockTime = 1 s

Courant Number mean: 0.0121565 max: 0.490117
deltaT = 4.08286e-05
Time = 0.000265996

PIMPLE: iteration 1
smoothSolver:  Solving for Ux, Initial residual = 1.1675e-06, Final residual = 2.98268e-16, No Iterations 1
smoothSolver:  Solving for Uy, Initial residual = 1.05323e-06, Final residual = 4.00687e-17, No Iterations 1
smoothSolver:  Solving for Uz, Initial residual = 1.01212e-06, Final residual = 3.94421e-17, No Iterations 1
GAMG:  Solving for p, Initial residual = 0.999979, Final residual = 0.0391729, No Iterations 1
GAMG:  Solving for p, Initial residual = 0.0485866, Final residual = 0.00253955, No Iterations 2
time step continuity errors : sum local = 4.44388e-06, global = 4.71191e-07, cumulative = 2.81324e-06
GAMG:  Solving for p, Initial residual = 0.999757, Final residual = 0.0391643, No Iterations 1
GAMG:  Solving for p, Initial residual = 0.0485809, Final residual = 6.30685e-07, No Iterations 12
time step continuity errors : sum local = 1.10364e-09, global = 1.9628e-10, cumulative = 2.81343e-06
PIMPLE: iteration 2
smoothSolver:  Solving for Ux, Initial residual = 0.107346, Final residual = 4.40928e-09, No Iterations 2
smoothSolver:  Solving for Uy, Initial residual = 0.0678775, Final residual = 2.22026e-09, No Iterations 2
smoothSolver:  Solving for Uz, Initial residual = 0.0654632, Final residual = 2.25904e-09, No Iterations 2
GAMG:  Solving for p, Initial residual = 0.578855, Final residual = 0.0227268, No Iterations 1
GAMG:  Solving for p, Initial residual = 0.142573, Final residual = 0.00736608, No Iterations 2
time step continuity errors : sum local = 4.56551e-06, global = -4.92624e-07, cumulative = 2.32081e-06
GAMG:  Solving for p, Initial residual = 0.234716, Final residual = 0.0116772, No Iterations 1
GAMG:  Solving for p, Initial residual = 0.0354622, Final residual = 7.70982e-07, No Iterations 11
time step continuity errors : sum local = 1.69841e-10, global = -8.12565e-12, cumulative = 2.3208e-06
smoothSolver:  Solving for omega, Initial residual = 0.00217269, Final residual = 5.309e-07, No Iterations 1
smoothSolver:  Solving for k, Initial residual = 0.0601224, Final residual = 1.0921e-08, No Iterations 2
ExecutionTime = 1.46 s  ClockTime = 1 s

Courant Number mean: 0.0123982 max: 0.491046
deltaT = 4.15731e-05
Time = 0.000307569

PIMPLE: iteration 1
[SOLVER] failed (exit code: -15)
