[WORKFLOW] Applying settings...
[SETTINGS] Updated controlDict: solver=pimpleFoam, endTime=0.1
[SETTINGS] Updated transportProperties: nu=1.5e-05
[SETTINGS] Updated turbulenceProperties: model=kOmegaSST
[WORKFLOW] Starting solver...
[SOLVER] Running pimpleFoam...
[SOLVER] Running: pimpleFoam
/*---------------------------------------------------------------------------*\
| =========                 |                                                 |
| \\      /  F ield         | OpenFOAM: The Open Source CFD Toolbox           |
|  \\    /   O peration     | Version:  2506                                  |
|   \\  /    A nd           | Website:  www.openfoam.com                      |
|    \\/     M anipulation  |                                                 |
\*---------------------------------------------------------------------------*/
Build  : _615aae61-20250627 OPENFOAM=2506 version=2506
Arch   : "LSB;label=32;scalar=64"
Exec   : pimpleFoam
Date   : Jan 22 2026
Time   : 14:02:13
Host   : Vortex-Eclipse
PID    : 16880
I/O    : uncollated
Case   : /home/reen/openfoam/Tutorials/Rotating_Setup_Case/OpenFOAM_GUI/WindTunnelGUI/runs/Run_2_20260122_140211/windTunnelCase
nProcs : 1
trapFpe: Floating point exception trapping enabled (FOAM_SIGFPE).
fileModificationChecking : Monitoring run-time modified files using timeStampMaster (fileModificationSkew 5, maxFileModificationPolls 20)
allowSystemOperations : Allowing user-supplied system call operations

// * * * * * * * * * * * * * * * * * * * * * * * * * * * * * * * * * * * * * //
Create time

Create mesh for time = 0


PIMPLE: no residual control data found. Calculations will employ 2 corrector loops

Reading field p

Reading field U

Reading/calculating face flux field phi

Selecting incompressible transport model Newtonian
Selecting turbulence model type RAS
Selecting RAS turbulence model kOmegaSST
Selecting patchDistMethod meshWave
RAS
{
    RASModel        kOmegaSST;
    turbulence      on;
    printCoeffs     on;
    alphaK1         0.85;
    alphaK2         1;
    alphaOmega1     0.5;
    alphaOmega2     0.856;
    gamma1          0.555556;
    gamma2          0.44;
    beta1           0.075;
    beta2           0.0828;
    betaStar        0.09;
    a1              0.31;
    b1              1;
    c1              10;
    F3              false;
    decayControl    false;
    kInf            0;
    omegaInf        0;
}

No MRF models present

No finite volume options present
Courant Number mean: 1.30588e-05 max: 0.00273856
Courant Number mean: 1.30588e-05 max: 0.00273856

Starting time loop

Courant Number mean: 1.30588e-05 max: 0.00273856
deltaT = 1.2e-05
Time = 1.2e-05

PIMPLE: iteration 1
smoothSolver:  Solving for Ux, Initial residual = 1, Final residual = 1.59557e-16, No Iterations 1
smoothSolver:  Solving for Uy, Initial residual = 0, Final residual = 0, No Iterations 0
smoothSolver:  Solving for Uz, Initial residual = 0, Final residual = 0, No Iterations 0
GAMG:  Solving for p, Initial residual = 1, Final residual = 0.0544387, No Iterations 6
GAMG:  Solving for p, Initial residual = 0.152154, Final residual = 0.00613032, No Iterations 1
time step continuity errors : sum local = 4.22458e-05, global = -1.49673e-07, cumulative = -1.49673e-07
GAMG:  Solving for p, Initial residual = 0.975764, Final residual = 0.0530986, No Iterations 6
GAMG:  Solving for p, Initial residual = 0.152138, Final residual = 6.05965e-07, No Iterations 11
time step continuity errors : sum local = 4.17589e-09, global = 7.3252e-10, cumulative = -1.48941e-07
PIMPLE: iteration 2
smoothSolver:  Solving for Ux, Initial residual = 0.999982, Final residual = 1.27623e-09, No Iterations 2
smoothSolver:  Solving for Uy, Initial residual = 0.999799, Final residual = 1.37979e-09, No Iterations 2
smoothSolver:  Solving for Uz, Initial residual = 0.999799, Final residual = 1.56584e-09, No Iterations 2
GAMG:  Solving for p, Initial residual = 0.0154504, Final residual = 0.000746645, No Iterations 1
GAMG:  Solving for p, Initial residual = 0.00225539, Final residual = 0.000210631, No Iterations 1
time step continuity errors : sum local = 1.63366e-06, global = -1.3279e-07, cumulative = -2.8173e-07
GAMG:  Solving for p, Initial residual = 0.000864726, Final residual = 4.905e-05, No Iterations 2
GAMG:  Solving for p, Initial residual = 0.000657057, Final residual = 9.3526e-07, No Iterations 5
time step continuity errors : sum local = 7.32512e-09, global = -7.20177e-10, cumulative = -2.82451e-07
smoothSolver:  Solving for omega, Initial residual = 0.00104026, Final residual = 2.91e-08, No Iterations 1
smoothSolver:  Solving for k, Initial residual = 1, Final residual = 1.6307e-09, No Iterations 2
ExecutionTime = 0.22 s  ClockTime = 0 s

Courant Number mean: 0.00363184 max: 0.176665
deltaT = 1.44e-05
Time = 2.64e-05

PIMPLE: iteration 1
smoothSolver:  Solving for Ux, Initial residual = 0.000387733, Final residual = 2.76706e-16, No Iterations 1
smoothSolver:  Solving for Uy, Initial residual = 5.97364e-05, Final residual = 4.19694e-17, No Iterations 1
smoothSolver:  Solving for Uz, Initial residual = 5.93045e-05, Final residual = 4.17898e-17, No Iterations 1
GAMG:  Solving for p, Initial residual = 0.99879, Final residual = 0.0472663, No Iterations 1
GAMG:  Solving for p, Initial residual = 0.0639107, Final residual = 0.00398104, No Iterations 2
time step continuity errors : sum local = 5.03012e-06, global = 5.13031e-07, cumulative = 2.30581e-07
GAMG:  Solving for p, Initial residual = 0.998686, Final residual = 0.0472616, No Iterations 1
GAMG:  Solving for p, Initial residual = 0.0639027, Final residual = 9.32306e-07, No Iterations 12
time step continuity errors : sum local = 1.17802e-09, global = 2.08129e-10, cumulative = 2.30789e-07
PIMPLE: iteration 2
smoothSolver:  Solving for Ux, Initial residual = 0.861359, Final residual = 8.63573e-10, No Iterations 2
smoothSolver:  Solving for Uy, Initial residual = 0.350283, Final residual = 4.07361e-10, No Iterations 2
smoothSolver:  Solving for Uz, Initial residual = 0.347576, Final residual = 4.94357e-10, No Iterations 2
GAMG:  Solving for p, Initial residual = 0.041478, Final residual = 0.00309709, No Iterations 3
GAMG:  Solving for p, Initial residual = 0.592959, Final residual = 0.0239389, No Iterations 1
time step continuity errors : sum local = 5.42017e-05, global = 2.52008e-06, cumulative = 2.75087e-06
GAMG:  Solving for p, Initial residual = 0.151864, Final residual = 0.0135906, No Iterations 1
GAMG:  Solving for p, Initial residual = 0.0785189, Final residual = 6.70447e-07, No Iterations 12
time step continuity errors : sum local = 4.66192e-10, global = 7.97842e-11, cumulative = 2.75095e-06
smoothSolver:  Solving for omega, Initial residual = 0.00112859, Final residual = 3.61656e-08, No Iterations 1
smoothSolver:  Solving for k, Initial residual = 0.366897, Final residual = 9.27289e-10, No Iterations 2
ExecutionTime = 0.36 s  ClockTime = 0 s

Courant Number mean: 0.00438598 max: 0.20801
deltaT = 1.728e-05
Time = 4.368e-05

PIMPLE: iteration 1
smoothSolver:  Solving for Ux, Initial residual = 9.49655e-06, Final residual = 2.70908e-16, No Iterations 1
smoothSolver:  Solving for Uy, Initial residual = 7.62937e-06, Final residual = 4.11384e-17, No Iterations 1
smoothSolver:  Solving for Uz, Initial residual = 7.11651e-06, Final residual = 3.98703e-17, No Iterations 1
GAMG:  Solving for p, Initial residual = 0.999863, Final residual = 0.0445318, No Iterations 1
GAMG:  Solving for p, Initial residual = 0.0565207, Final residual = 0.00355024, No Iterations 2
time step continuity errors : sum local = 4.31246e-06, global = 4.22056e-07, cumulative = 3.173e-06
GAMG:  Solving for p, Initial residual = 0.999639, Final residual = 0.044522, No Iterations 1
GAMG:  Solving for p, Initial residual = 0.0565138, Final residual = 8.01666e-07, No Iterations 12
time step continuity errors : sum local = 9.73804e-10, global = 1.72118e-10, cumulative = 3.17318e-06
PIMPLE: iteration 2
smoothSolver:  Solving for Ux, Initial residual = 0.302111, Final residual = 6.10191e-10, No Iterations 2
smoothSolver:  Solving for Uy, Initial residual = 0.166195, Final residual = 2.40233e-10, No Iterations 2
smoothSolver:  Solving for Uz, Initial residual = 0.1624, Final residual = 2.8461e-10, No Iterations 2
GAMG:  Solving for p, Initial residual = 0.483307, Final residual = 0.0208862, No Iterations 1
GAMG:  Solving for p, Initial residual = 0.11715, Final residual = 0.00652622, No Iterations 2
time step continuity errors : sum local = 5.65635e-06, global = -6.06967e-07, cumulative = 2.56621e-06
GAMG:  Solving for p, Initial residual = 0.181232, Final residual = 0.0090743, No Iterations 1
GAMG:  Solving for p, Initial residual = 0.0270369, Final residual = 5.83027e-07, No Iterations 11
time step continuity errors : sum local = 2.17072e-10, global = -1.64131e-11, cumulative = 2.56619e-06
smoothSolver:  Solving for omega, Initial residual = 0.00129005, Final residual = 5.92852e-08, No Iterations 1
smoothSolver:  Solving for k, Initial residual = 0.2654, Final residual = 1.41328e-09, No Iterations 2
ExecutionTime = 0.5 s  ClockTime = 0 s

Courant Number mean: 0.00526024 max: 0.24201
deltaT = 2.0736e-05
Time = 6.4416e-05

PIMPLE: iteration 1
smoothSolver:  Solving for Ux, Initial residual = 3.87117e-06, Final residual = 2.73225e-16, No Iterations 1
smoothSolver:  Solving for Uy, Initial residual = 2.61052e-06, Final residual = 4.03413e-17, No Iterations 1
smoothSolver:  Solving for Uz, Initial residual = 2.5047e-06, Final residual = 3.97476e-17, No Iterations 1
GAMG:  Solving for p, Initial residual = 0.999941, Final residual = 0.0431102, No Iterations 1
GAMG:  Solving for p, Initial residual = 0.05415, Final residual = 0.00330574, No Iterations 2
time step continuity errors : sum local = 4.32227e-06, global = 4.33525e-07, cumulative = 2.99972e-06
GAMG:  Solving for p, Initial residual = 0.999714, Final residual = 0.0431005, No Iterations 1
GAMG:  Solving for p, Initial residual = 0.0541435, Final residual = 7.69402e-07, No Iterations 12
time step continuity errors : sum local = 1.00602e-09, global = 1.78049e-10, cumulative = 2.99989e-06
PIMPLE: iteration 2
smoothSolver:  Solving for Ux, Initial residual = 0.225913, Final residual = 9.03646e-10, No Iterations 2
smoothSolver:  Solving for Uy, Initial residual = 0.114393, Final residual = 3.45124e-10, No Iterations 2
smoothSolver:  Solving for Uz, Initial residual = 0.111966, Final residual = 3.84939e-10, No Iterations 2
GAMG:  Solving for p, Initial residual = 0.47076, Final residual = 0.0201262, No Iterations 1
GAMG:  Solving for p, Initial residual = 0.110387, Final residual = 0.00659747, No Iterations 2
time step continuity errors : sum local = 4.79479e-06, global = -4.90692e-07, cumulative = 2.5092e-06
GAMG:  Solving for p, Initial residual = 0.18981, Final residual = 0.0093791, No Iterations 1
GAMG:  Solving for p, Initial residual = 0.0275255, Final residual = 5.97793e-07, No Iterations 11
time step continuity errors : sum local = 1.82994e-10, global = -9.91345e-12, cumulative = 2.50919e-06
smoothSolver:  Solving for omega, Initial residual = 0.00148142, Final residual = 9.7206e-08, No Iterations 1
smoothSolver:  Solving for k, Initial residual = 0.192818, Final residual = 2.14958e-09, No Iterations 2
ExecutionTime = 0.64 s  ClockTime = 0 s

Courant Number mean: 0.00630935 max: 0.281513
deltaT = 2.4419e-05
Time = 8.8835e-05

PIMPLE: iteration 1
smoothSolver:  Solving for Ux, Initial residual = 2.5536e-06, Final residual = 2.79535e-16, No Iterations 1
smoothSolver:  Solving for Uy, Initial residual = 1.76749e-06, Final residual = 4.01293e-17, No Iterations 1
smoothSolver:  Solving for Uz, Initial residual = 1.7193e-06, Final residual = 3.99288e-17, No Iterations 1
GAMG:  Solving for p, Initial residual = 0.999956, Final residual = 0.0420301, No Iterations 1
GAMG:  Solving for p, Initial residual = 0.0525226, Final residual = 0.00311716, No Iterations 2
time step continuity errors : sum local = 4.40713e-06, global = 4.4915e-07, cumulative = 2.95834e-06
GAMG:  Solving for p, Initial residual = 0.99973, Final residual = 0.0420207, No Iterations 1
GAMG:  Solving for p, Initial residual = 0.0525163, Final residual = 7.39227e-07, No Iterations 12
time step continuity errors : sum local = 1.04516e-09, global = 1.8517e-10, cumulative = 2.95853e-06
PIMPLE: iteration 2
smoothSolver:  Solving for Ux, Initial residual = 0.18863, Final residual = 1.37289e-09, No Iterations 2
smoothSolver:  Solving for Uy, Initial residual = 0.0987284, Final residual = 5.46939e-10, No Iterations 2
smoothSolver:  Solving for Uz, Initial residual = 0.0963136, Final residual = 5.93454e-10, No Iterations 2
GAMG:  Solving for p, Initial residual = 0.493255, Final residual = 0.0206489, No Iterations 1
GAMG:  Solving for p, Initial residual = 0.116293, Final residual = 0.00677171, No Iterations 2
time step continuity errors : sum local = 4.72927e-06, global = -4.92224e-07, cumulative = 2.4663e-06
GAMG:  Solving for p, Initial residual = 0.200197, Final residual = 0.00989775, No Iterations 1
GAMG:  Solving for p, Initial residual = 0.0292324, Final residual = 6.35523e-07, No Iterations 11
time step continuity errors : sum local = 1.79649e-10, global = -9.33385e-12, cumulative = 2.4663e-06
smoothSolver:  Solving for omega, Initial residual = 0.00166962, Final residual = 1.50441e-07, No Iterations 1
smoothSolver:  Solving for k, Initial residual = 0.149406, Final residual = 3.24606e-09, No Iterations 2
ExecutionTime = 0.77 s  ClockTime = 0 s

Courant Number mean: 0.00742698 max: 0.321666
deltaT = 2.82147e-05
Time = 0.00011705

PIMPLE: iteration 1
smoothSolver:  Solving for Ux, Initial residual = 1.89819e-06, Final residual = 2.82656e-16, No Iterations 1
smoothSolver:  Solving for Uy, Initial residual = 1.43842e-06, Final residual = 4.04841e-17, No Iterations 1
smoothSolver:  Solving for Uz, Initial residual = 1.39857e-06, Final residual = 3.98752e-17, No Iterations 1
GAMG:  Solving for p, Initial residual = 0.999964, Final residual = 0.0412029, No Iterations 1
GAMG:  Solving for p, Initial residual = 0.0513031, Final residual = 0.00296232, No Iterations 2
time step continuity errors : sum local = 4.50052e-06, global = 4.64399e-07, cumulative = 2.93069e-06
GAMG:  Solving for p, Initial residual = 0.999739, Final residual = 0.0411938, No Iterations 1
GAMG:  Solving for p, Initial residual = 0.051297, Final residual = 7.1264e-07, No Iterations 12
time step continuity errors : sum local = 1.0827e-09, global = 1.92003e-10, cumulative = 2.93089e-06
PIMPLE: iteration 2
smoothSolver:  Solving for Ux, Initial residual = 0.162775, Final residual = 1.98302e-09, No Iterations 2
smoothSolver:  Solving for Uy, Initial residual = 0.0888636, Final residual = 8.30571e-10, No Iterations 2
smoothSolver:  Solving for Uz, Initial residual = 0.0864644, Final residual = 8.81924e-10, No Iterations 2
GAMG:  Solving for p, Initial residual = 0.514695, Final residual = 0.0211606, No Iterations 1
GAMG:  Solving for p, Initial residual = 0.122061, Final residual = 0.00692689, No Iterations 2
time step continuity errors : sum local = 4.75625e-06, global = -5.00332e-07, cumulative = 2.43055e-06
GAMG:  Solving for p, Initial residual = 0.209304, Final residual = 0.0103565, No Iterations 1
GAMG:  Solving for p, Initial residual = 0.0307743, Final residual = 6.68874e-07, No Iterations 11
time step continuity errors : sum local = 1.79736e-10, global = -9.17359e-12, cumulative = 2.43055e-06
smoothSolver:  Solving for omega, Initial residual = 0.00184354, Final residual = 2.19359e-07, No Iterations 1
smoothSolver:  Solving for k, Initial residual = 0.12092, Final residual = 4.73014e-09, No Iterations 2
ExecutionTime = 0.91 s  ClockTime = 1 s

Courant Number mean: 0.00857832 max: 0.36488
deltaT = 3.2081e-05
Time = 0.000149131

PIMPLE: iteration 1
smoothSolver:  Solving for Ux, Initial residual = 1.54365e-06, Final residual = 2.82774e-16, No Iterations 1
smoothSolver:  Solving for Uy, Initial residual = 1.27067e-06, Final residual = 4.04465e-17, No Iterations 1
smoothSolver:  Solving for Uz, Initial residual = 1.23212e-06, Final residual = 3.98458e-17, No Iterations 1
GAMG:  Solving for p, Initial residual = 0.999969, Final residual = 0.0405443, No Iterations 1
GAMG:  Solving for p, Initial residual = 0.0503595, Final residual = 0.00283186, No Iterations 2
time step continuity errors : sum local = 4.58739e-06, global = 4.77929e-07, cumulative = 2.90847e-06
GAMG:  Solving for p, Initial residual = 0.999744, Final residual = 0.0405353, No Iterations 1
GAMG:  Solving for p, Initial residual = 0.0503535, Final residual = 6.88943e-07, No Iterations 12
time step continuity errors : sum local = 1.11605e-09, global = 1.98098e-10, cumulative = 2.90867e-06
PIMPLE: iteration 2
smoothSolver:  Solving for Ux, Initial residual = 0.143642, Final residual = 2.73904e-09, No Iterations 2
smoothSolver:  Solving for Uy, Initial residual = 0.081766, Final residual = 1.20556e-09, No Iterations 2
smoothSolver:  Solving for Uz, Initial residual = 0.0793587, Final residual = 1.2599e-09, No Iterations 2
GAMG:  Solving for p, Initial residual = 0.533843, Final residual = 0.0216236, No Iterations 1
GAMG:  Solving for p, Initial residual = 0.127638, Final residual = 0.00706281, No Iterations 2
time step continuity errors : sum local = 4.80355e-06, global = -5.09799e-07, cumulative = 2.39887e-06
GAMG:  Solving for p, Initial residual = 0.217333, Final residual = 0.0107646, No Iterations 1
GAMG:  Solving for p, Initial residual = 0.0321682, Final residual = 6.99179e-07, No Iterations 11
time step continuity errors : sum local = 1.80691e-10, global = -8.99573e-12, cumulative = 2.39887e-06
smoothSolver:  Solving for omega, Initial residual = 0.00199853, Final residual = 3.04123e-07, No Iterations 1
smoothSolver:  Solving for k, Initial residual = 0.10075, Final residual = 6.63071e-09, No Iterations 2
ExecutionTime = 1.04 s  ClockTime = 1 s

Courant Number mean: 0.00975054 max: 0.407734
deltaT = 3.6015e-05
Time = 0.000185146

PIMPLE: iteration 1
smoothSolver:  Solving for Ux, Initial residual = 1.35891e-06, Final residual = 2.89693e-16, No Iterations 1
smoothSolver:  Solving for Uy, Initial residual = 1.18395e-06, Final residual = 4.05803e-17, No Iterations 1
smoothSolver:  Solving for Uz, Initial residual = 1.14445e-06, Final residual = 4.00048e-17, No Iterations 1
GAMG:  Solving for p, Initial residual = 0.999973, Final residual = 0.0400055, No Iterations 1
GAMG:  Solving for p, Initial residual = 0.0496229, Final residual = 0.00272007, No Iterations 2
time step continuity errors : sum local = 4.66559e-06, global = 4.89741e-07, cumulative = 2.88861e-06
GAMG:  Solving for p, Initial residual = 0.999748, Final residual = 0.0399966, No Iterations 1
GAMG:  Solving for p, Initial residual = 0.049617, Final residual = 6.67693e-07, No Iterations 12
time step continuity errors : sum local = 1.14528e-09, global = 2.03468e-10, cumulative = 2.88881e-06
PIMPLE: iteration 2
smoothSolver:  Solving for Ux, Initial residual = 0.128911, Final residual = 3.64481e-09, No Iterations 2
smoothSolver:  Solving for Uy, Initial residual = 0.0763515, Final residual = 1.68454e-09, No Iterations 2
smoothSolver:  Solving for Uz, Initial residual = 0.0739335, Final residual = 1.73708e-09, No Iterations 2
GAMG:  Solving for p, Initial residual = 0.550923, Final residual = 0.0220439, No Iterations 1
GAMG:  Solving for p, Initial residual = 0.133025, Final residual = 0.00718488, No Iterations 2
time step continuity errors : sum local = 4.85785e-06, global = -5.19036e-07, cumulative = 2.36977e-06
GAMG:  Solving for p, Initial residual = 0.224537, Final residual = 0.0111327, No Iterations 1
GAMG:  Solving for p, Initial residual = 0.033458, Final residual = 7.27324e-07, No Iterations 11
time step continuity errors : sum local = 1.81976e-10, global = -8.82372e-12, cumulative = 2.36976e-06
smoothSolver:  Solving for omega, Initial residual = 0.00213362, Final residual = 4.05484e-07, No Iterations 1
smoothSolver:  Solving for k, Initial residual = 0.0857377, Final residual = 9.0739e-09, No Iterations 2
ExecutionTime = 1.18 s  ClockTime = 1 s

Courant Number mean: 0.0109428 max: 0.449448
deltaT = 4.00216e-05
Time = 0.000225167

PIMPLE: iteration 1
smoothSolver:  Solving for Ux, Initial residual = 1.2778e-06, Final residual = 2.94497e-16, No Iterations 1
smoothSolver:  Solving for Uy, Initial residual = 1.14511e-06, Final residual = 4.0251e-17, No Iterations 1
smoothSolver:  Solving for Uz, Initial residual = 1.10317e-06, Final residual = 3.97213e-17, No Iterations 1
GAMG:  Solving for p, Initial residual = 0.999975, Final residual = 0.0395526, No Iterations 1
GAMG:  Solving for p, Initial residual = 0.0490427, Final residual = 0.00262334, No Iterations 2
time step continuity errors : sum local = 4.736e-06, global = 5.00037e-07, cumulative = 2.8698e-06
GAMG:  Solving for p, Initial residual = 0.999752, Final residual = 0.0395438, No Iterations 1
GAMG:  Solving for p, Initial residual = 0.049037, Final residual = 6.48587e-07, No Iterations 12
time step continuity errors : sum local = 1.17094e-09, global = 2.08213e-10, cumulative = 2.87001e-06
PIMPLE: iteration 2
smoothSolver:  Solving for Ux, Initial residual = 0.117252, Final residual = 4.71093e-09, No Iterations 2
smoothSolver:  Solving for Uy, Initial residual = 0.0720572, Final residual = 2.288e-09, No Iterations 2
smoothSolver:  Solving for Uz, Initial residual = 0.0696356, Final residual = 2.32848e-09, No Iterations 2
GAMG:  Solving for p, Initial residual = 0.566278, Final residual = 0.0224279, No Iterations 1
GAMG:  Solving for p, Initial residual = 0.13821, Final residual = 0.00729513, No Iterations 2
time step continuity errors : sum local = 4.91259e-06, global = -5.27954e-07, cumulative = 2.34206e-06
GAMG:  Solving for p, Initial residual = 0.231023, Final residual = 0.0114657, No Iterations 1
GAMG:  Solving for p, Initial residual = 0.0346503, Final residual = 7.53696e-07, No Iterations 11
time step continuity errors : sum local = 1.83392e-10, global = -8.61373e-12, cumulative = 2.34205e-06
smoothSolver:  Solving for omega, Initial residual = 0.00224866, Final residual = 5.24986e-07, No Iterations 1
smoothSolver:  Solving for k, Initial residual = 0.0741093, Final residual = 1.20876e-08, No Iterations 2
ExecutionTime = 1.31 s  ClockTime = 1 s

Courant Number mean: 0.0121565 max: 0.490117
deltaT = 4.08286e-05
Time = 0.000265996

PIMPLE: iteration 1
smoothSolver:  Solving for Ux, Initial residual = 1.1675e-06, Final residual = 2.98268e-16, No Iterations 1
smoothSolver:  Solving for Uy, Initial residual = 1.05323e-06, Final residual = 4.00687e-17, No Iterations 1
smoothSolver:  Solving for Uz, Initial residual = 1.01212e-06, Final residual = 3.94421e-17, No Iterations 1
GAMG:  Solving for p, Initial residual = 0.999979, Final residual = 0.0391729, No Iterations 1
GAMG:  Solving for p, Initial residual = 0.0485866, Final residual = 0.00253955, No Iterations 2
time step continuity errors : sum local = 4.44388e-06, global = 4.71191e-07, cumulative = 2.81324e-06
GAMG:  Solving for p, Initial residual = 0.999757, Final residual = 0.0391643, No Iterations 1
GAMG:  Solving for p, Initial residual = 0.0485809, Final residual = 6.30685e-07, No Iterations 12
time step continuity errors : sum local = 1.10364e-09, global = 1.9628e-10, cumulative = 2.81343e-06
PIMPLE: iteration 2
smoothSolver:  Solving for Ux, Initial residual = 0.107346, Final residual = 4.40928e-09, No Iterations 2
smoothSolver:  Solving for Uy, Initial residual = 0.0678775, Final residual = 2.22026e-09, No Iterations 2
smoothSolver:  Solving for Uz, Initial residual = 0.0654632, Final residual = 2.25904e-09, No Iterations 2
GAMG:  Solving for p, Initial residual = 0.578855, Final residual = 0.0227268, No Iterations 1
GAMG:  Solving for p, Initial residual = 0.142573, Final residual = 0.00736608, No Iterations 2
time step continuity errors : sum local = 4.56551e-06, global = -4.92624e-07, cumulative = 2.32081e-06
GAMG:  Solving for p, Initial residual = 0.234716, Final residual = 0.0116772, No Iterations 1
GAMG:  Solving for p, Initial residual = 0.0354622, Final residual = 7.70982e-07, No Iterations 11
time step continuity errors : sum local = 1.69841e-10, global = -8.12565e-12, cumulative = 2.3208e-06
smoothSolver:  Solving for omega, Initial residual = 0.00217269, Final residual = 5.309e-07, No Iterations 1
smoothSolver:  Solving for k, Initial residual = 0.0601224, Final residual = 1.0921e-08, No Iterations 2
ExecutionTime = 1.45 s  ClockTime = 1 s

Courant Number mean: 0.0123982 max: 0.491046
deltaT = 4.15731e-05
Time = 0.000307569

PIMPLE: iteration 1
smoothSolver:  Solving for Ux, Initial residual = 1.12887e-06, Final residual = 3.06547e-16, No Iterations 1
smoothSolver:  Solving for Uy, Initial residual = 1.01456e-06, Final residual = 4.01888e-17, No Iterations 1
smoothSolver:  Solving for Uz, Initial residual = 9.73637e-07, Final residual = 9.73637e-07, No Iterations 0
GAMG:  Solving for p, Initial residual = 0.999981, Final residual = 0.0388494, No Iterations 1
GAMG:  Solving for p, Initial residual = 0.0482127, Final residual = 0.00246522, No Iterations 2
time step continuity errors : sum local = 4.18839e-06, global = 4.45452e-07, cumulative = 2.76625e-06
GAMG:  Solving for p, Initial residual = 0.99976, Final residual = 0.0388409, No Iterations 1
GAMG:  Solving for p, Initial residual = 0.0482071, Final residual = 6.14223e-07, No Iterations 12
time step continuity errors : sum local = 1.04358e-09, global = 1.85629e-10, cumulative = 2.76644e-06
PIMPLE: iteration 2
smoothSolver:  Solving for Ux, Initial residual = 0.0997911, Final residual = 4.18549e-09, No Iterations 2
smoothSolver:  Solving for Uy, Initial residual = 0.0647665, Final residual = 2.17788e-09, No Iterations 2
smoothSolver:  Solving for Uz, Initial residual = 0.0623646, Final residual = 2.223e-09, No Iterations 2
GAMG:  Solving for p, Initial residual = 0.590868, Final residual = 0.023018, No Iterations 1
GAMG:  Solving for p, Initial residual = 0.147004, Final residual = 0.00743865, No Iterations 2
time step continuity errors : sum local = 4.29629e-06, global = -4.65163e-07, cumulative = 2.30128e-06
GAMG:  Solving for p, Initial residual = 0.238717, Final residual = 0.0119062, No Iterations 1
GAMG:  Solving for p, Initial residual = 0.0363808, Final residual = 7.90674e-07, No Iterations 11
time step continuity errors : sum local = 1.59344e-10, global = -7.7404e-12, cumulative = 2.30127e-06
smoothSolver:  Solving for omega, Initial residual = 0.00209736, Final residual = 5.34441e-07, No Iterations 1
smoothSolver:  Solving for k, Initial residual = 0.0501969, Final residual = 1.00384e-08, No Iterations 2
ExecutionTime = 1.58 s  ClockTime = 1 s

Courant Number mean: 0.0126211 max: 0.491381
deltaT = 4.23024e-05
Time = 0.000349871

PIMPLE: iteration 1
smoothSolver:  Solving for Ux, Initial residual = 1.10555e-06, Final residual = 3.11987e-16, No Iterations 1
smoothSolver:  Solving for Uy, Initial residual = 9.86597e-07, Final residual = 9.86597e-07, No Iterations 0
smoothSolver:  Solving for Uz, Initial residual = 9.45439e-07, Final residual = 9.45439e-07, No Iterations 0
GAMG:  Solving for p, Initial residual = 0.999982, Final residual = 0.0385686, No Iterations 1
GAMG:  Solving for p, Initial residual = 0.0479065, Final residual = 0.00239895, No Iterations 2
time step continuity errors : sum local = 3.96642e-06, global = 4.22795e-07, cumulative = 2.72406e-06
GAMG:  Solving for p, Initial residual = 0.999762, Final residual = 0.0385602, No Iterations 1
GAMG:  Solving for p, Initial residual = 0.0479009, Final residual = 5.99182e-07, No Iterations 12
time step continuity errors : sum local = 9.90703e-10, global = 1.76252e-10, cumulative = 2.72424e-06
PIMPLE: iteration 2
smoothSolver:  Solving for Ux, Initial residual = 0.0934362, Final residual = 4.00943e-09, No Iterations 2
smoothSolver:  Solving for Uy, Initial residual = 0.062094, Final residual = 2.15392e-09, No Iterations 2
smoothSolver:  Solving for Uz, Initial residual = 0.0597098, Final residual = 2.21414e-09, No Iterations 2
GAMG:  Solving for p, Initial residual = 0.601753, Final residual = 0.0232813, No Iterations 1
GAMG:  Solving for p, Initial residual = 0.151255, Final residual = 0.00750337, No Iterations 2
time step continuity errors : sum local = 4.06384e-06, global = -4.41001e-07, cumulative = 2.28324e-06
GAMG:  Solving for p, Initial residual = 0.242185, Final residual = 0.0121084, No Iterations 1
GAMG:  Solving for p, Initial residual = 0.0372111, Final residual = 8.08354e-07, No Iterations 11
time step continuity errors : sum local = 1.50278e-10, global = -7.42057e-12, cumulative = 2.28323e-06
smoothSolver:  Solving for omega, Initial residual = 0.00202448, Final residual = 5.37206e-07, No Iterations 1
smoothSolver:  Solving for k, Initial residual = 0.042838, Final residual = 9.36884e-09, No Iterations 2
ExecutionTime = 1.7 s  ClockTime = 1 s

Courant Number mean: 0.0128394 max: 0.491703
deltaT = 4.30162e-05
Time = 0.000392887

PIMPLE: iteration 1
smoothSolver:  Solving for Ux, Initial residual = 1.09187e-06, Final residual = 3.13586e-16, No Iterations 1
smoothSolver:  Solving for Uy, Initial residual = 9.65705e-07, Final residual = 9.65705e-07, No Iterations 0
smoothSolver:  Solving for Uz, Initial residual = 9.24229e-07, Final residual = 9.24229e-07, No Iterations 0
GAMG:  Solving for p, Initial residual = 0.999982, Final residual = 0.0383231, No Iterations 1
GAMG:  Solving for p, Initial residual = 0.0476567, Final residual = 0.00233955, No Iterations 2
time step continuity errors : sum local = 3.77152e-06, global = 4.02655e-07, cumulative = 2.68589e-06
GAMG:  Solving for p, Initial residual = 0.999763, Final residual = 0.0383148, No Iterations 1
GAMG:  Solving for p, Initial residual = 0.0476512, Final residual = 5.854e-07, No Iterations 12
time step continuity errors : sum local = 9.43721e-10, global = 1.67921e-10, cumulative = 2.68605e-06
PIMPLE: iteration 2
smoothSolver:  Solving for Ux, Initial residual = 0.0880217, Final residual = 3.87922e-09, No Iterations 2
smoothSolver:  Solving for Uy, Initial residual = 0.0597705, Final residual = 2.15009e-09, No Iterations 2
smoothSolver:  Solving for Uz, Initial residual = 0.0574093, Final residual = 2.23068e-09, No Iterations 2
GAMG:  Solving for p, Initial residual = 0.61167, Final residual = 0.0235212, No Iterations 1
GAMG:  Solving for p, Initial residual = 0.155314, Final residual = 0.00756173, No Iterations 2
time step continuity errors : sum local = 3.86065e-06, global = -4.19705e-07, cumulative = 2.26635e-06
GAMG:  Solving for p, Initial residual = 0.245198, Final residual = 0.012288, No Iterations 1
GAMG:  Solving for p, Initial residual = 0.0379697, Final residual = 8.24516e-07, No Iterations 11
time step continuity errors : sum local = 1.42381e-10, global = -7.13181e-12, cumulative = 2.26634e-06
smoothSolver:  Solving for omega, Initial residual = 0.00195374, Final residual = 5.38996e-07, No Iterations 1
smoothSolver:  Solving for k, Initial residual = 0.037194, Final residual = 8.86789e-09, No Iterations 2
ExecutionTime = 1.83 s  ClockTime = 1 s

Courant Number mean: 0.0130533 max: 0.492012
deltaT = 4.37145e-05
Time = 0.000436602

PIMPLE: iteration 1
smoothSolver:  Solving for Ux, Initial residual = 1.08424e-06, Final residual = 3.21739e-16, No Iterations 1
smoothSolver:  Solving for Uy, Initial residual = 9.50059e-07, Final residual = 9.50059e-07, No Iterations 0
smoothSolver:  Solving for Uz, Initial residual = 9.08137e-07, Final residual = 9.08137e-07, No Iterations 0
GAMG:  Solving for p, Initial residual = 0.999983, Final residual = 0.0381066, No Iterations 1
GAMG:  Solving for p, Initial residual = 0.0474501, Final residual = 0.0022861, No Iterations 2
time step continuity errors : sum local = 3.59881e-06, global = 3.8463e-07, cumulative = 2.65097e-06
GAMG:  Solving for p, Initial residual = 0.999765, Final residual = 0.0380984, No Iterations 1
GAMG:  Solving for p, Initial residual = 0.0474446, Final residual = 5.72767e-07, No Iterations 12
time step continuity errors : sum local = 9.01671e-10, global = 1.60464e-10, cumulative = 2.65113e-06
PIMPLE: iteration 2
smoothSolver:  Solving for Ux, Initial residual = 0.0833671, Final residual = 3.77959e-09, No Iterations 2
smoothSolver:  Solving for Uy, Initial residual = 0.0577251, Final residual = 2.15982e-09, No Iterations 2
smoothSolver:  Solving for Uz, Initial residual = 0.0553929, Final residual = 2.2612e-09, No Iterations 2
GAMG:  Solving for p, Initial residual = 0.620741, Final residual = 0.0237403, No Iterations 1
GAMG:  Solving for p, Initial residual = 0.15919, Final residual = 0.00761426, No Iterations 2
time step continuity errors : sum local = 3.68126e-06, global = -4.00711e-07, cumulative = 2.25042e-06
GAMG:  Solving for p, Initial residual = 0.247759, Final residual = 0.0124449, No Iterations 1
GAMG:  Solving for p, Initial residual = 0.0386573, Final residual = 8.39101e-07, No Iterations 11
time step continuity errors : sum local = 1.35421e-10, global = -6.87709e-12, cumulative = 2.25041e-06
smoothSolver:  Solving for omega, Initial residual = 0.00188533, Final residual = 5.40178e-07, No Iterations 1
smoothSolver:  Solving for k, Initial residual = 0.032728, Final residual = 8.45101e-09, No Iterations 2
ExecutionTime = 1.96 s  ClockTime = 2 s

Courant Number mean: 0.0132625 max: 0.492308
deltaT = 4.43975e-05
Time = 0.000481

PIMPLE: iteration 1
smoothSolver:  Solving for Ux, Initial residual = 1.08039e-06, Final residual = 3.24179e-16, No Iterations 1
smoothSolver:  Solving for Uy, Initial residual = 9.37997e-07, Final residual = 9.37997e-07, No Iterations 0
smoothSolver:  Solving for Uz, Initial residual = 8.95873e-07, Final residual = 8.95873e-07, No Iterations 0
GAMG:  Solving for p, Initial residual = 0.999983, Final residual = 0.0379157, No Iterations 1
GAMG:  Solving for p, Initial residual = 0.0472749, Final residual = 0.00223785, No Iterations 2
time step continuity errors : sum local = 3.4448e-06, global = 3.68401e-07, cumulative = 2.61882e-06
GAMG:  Solving for p, Initial residual = 0.999766, Final residual = 0.0379076, No Iterations 1
GAMG:  Solving for p, Initial residual = 0.0472695, Final residual = 5.61154e-07, No Iterations 12
time step continuity errors : sum local = 8.63813e-10, global = 1.53752e-10, cumulative = 2.61897e-06
PIMPLE: iteration 2
smoothSolver:  Solving for Ux, Initial residual = 0.0793278, Final residual = 3.73253e-09, No Iterations 2
smoothSolver:  Solving for Uy, Initial residual = 0.055913, Final residual = 2.17953e-09, No Iterations 2
smoothSolver:  Solving for Uz, Initial residual = 0.0536105, Final residual = 2.30471e-09, No Iterations 2
GAMG:  Solving for p, Initial residual = 0.629079, Final residual = 0.0239442, No Iterations 1
GAMG:  Solving for p, Initial residual = 0.162869, Final residual = 0.00766199, No Iterations 2
time step continuity errors : sum local = 3.5217e-06, global = -3.83697e-07, cumulative = 2.23527e-06
GAMG:  Solving for p, Initial residual = 0.249952, Final residual = 0.0125835, No Iterations 1
GAMG:  Solving for p, Initial residual = 0.0392908, Final residual = 8.52474e-07, No Iterations 11
time step continuity errors : sum local = 1.29248e-10, global = -6.64521e-12, cumulative = 2.23527e-06
smoothSolver:  Solving for omega, Initial residual = 0.00181919, Final residual = 5.41191e-07, No Iterations 1
smoothSolver:  Solving for k, Initial residual = 0.0291127, Final residual = 8.14343e-09, No Iterations 2
ExecutionTime = 2.09 s  ClockTime = 2 s

Courant Number mean: 0.0134672 max: 0.49257
deltaT = 4.50672e-05
Time = 0.000526067

PIMPLE: iteration 1
smoothSolver:  Solving for Ux, Initial residual = 1.07899e-06, Final residual = 3.30829e-16, No Iterations 1
smoothSolver:  Solving for Uy, Initial residual = 9.28689e-07, Final residual = 9.28689e-07, No Iterations 0
smoothSolver:  Solving for Uz, Initial residual = 8.86329e-07, Final residual = 8.86329e-07, No Iterations 0
GAMG:  Solving for p, Initial residual = 0.999983, Final residual = 0.0377469, No Iterations 1
GAMG:  Solving for p, Initial residual = 0.047122, Final residual = 0.00219415, No Iterations 2
time step continuity errors : sum local = 3.30672e-06, global = 3.5374e-07, cumulative = 2.58901e-06
GAMG:  Solving for p, Initial residual = 0.999768, Final residual = 0.0377388, No Iterations 1
GAMG:  Solving for p, Initial residual = 0.0471167, Final residual = 5.5048e-07, No Iterations 12
time step continuity errors : sum local = 8.2962e-10, global = 1.47689e-10, cumulative = 2.58915e-06
PIMPLE: iteration 2
smoothSolver:  Solving for Ux, Initial residual = 0.0757935, Final residual = 3.7165e-09, No Iterations 2
smoothSolver:  Solving for Uy, Initial residual = 0.0542991, Final residual = 2.20507e-09, No Iterations 2
smoothSolver:  Solving for Uz, Initial residual = 0.0520222, Final residual = 2.3571e-09, No Iterations 2
GAMG:  Solving for p, Initial residual = 0.636737, Final residual = 0.0241317, No Iterations 1
GAMG:  Solving for p, Initial residual = 0.166367, Final residual = 0.00770532, No Iterations 2
time step continuity errors : sum local = 3.3789e-06, global = -3.68299e-07, cumulative = 2.22085e-06
GAMG:  Solving for p, Initial residual = 0.251863, Final residual = 0.0127078, No Iterations 1
GAMG:  Solving for p, Initial residual = 0.0398763, Final residual = 8.64749e-07, No Iterations 11
time step continuity errors : sum local = 1.23736e-10, global = -6.43516e-12, cumulative = 2.22085e-06
smoothSolver:  Solving for omega, Initial residual = 0.00175545, Final residual = 5.42015e-07, No Iterations 1
smoothSolver:  Solving for k, Initial residual = 0.0261302, Final residual = 7.89932e-09, No Iterations 2
ExecutionTime = 2.22 s  ClockTime = 2 s

Courant Number mean: 0.013668 max: 0.492838
deltaT = 4.57222e-05
Time = 0.000571789

PIMPLE: iteration 1
smoothSolver:  Solving for Ux, Initial residual = 1.079e-06, Final residual = 3.3866e-16, No Iterations 1
smoothSolver:  Solving for Uy, Initial residual = 9.21701e-07, Final residual = 9.21701e-07, No Iterations 0
smoothSolver:  Solving for Uz, Initial residual = 8.78906e-07, Final residual = 8.78906e-07, No Iterations 0
GAMG:  Solving for p, Initial residual = 0.999984, Final residual = 0.0375945, No Iterations 1
GAMG:  Solving for p, Initial residual = 0.0469901, Final residual = 0.00215439, No Iterations 2
time step continuity errors : sum local = 3.18204e-06, global = 3.40407e-07, cumulative = 2.56126e-06
GAMG:  Solving for p, Initial residual = 0.999769, Final residual = 0.0375865, No Iterations 1
GAMG:  Solving for p, Initial residual = 0.0469847, Final residual = 5.40631e-07, No Iterations 12
time step continuity errors : sum local = 7.98521e-10, global = 1.42175e-10, cumulative = 2.5614e-06
PIMPLE: iteration 2
smoothSolver:  Solving for Ux, Initial residual = 0.072685, Final residual = 3.71879e-09, No Iterations 2
smoothSolver:  Solving for Uy, Initial residual = 0.05285, Final residual = 2.2377e-09, No Iterations 2
smoothSolver:  Solving for Uz, Initial residual = 0.0505991, Final residual = 2.41655e-09, No Iterations 2
GAMG:  Solving for p, Initial residual = 0.643775, Final residual = 0.0243036, No Iterations 1
GAMG:  Solving for p, Initial residual = 0.169693, Final residual = 0.00774472, No Iterations 2
time step continuity errors : sum local = 3.25019e-06, global = -3.54409e-07, cumulative = 2.20699e-06
GAMG:  Solving for p, Initial residual = 0.253485, Final residual = 0.0128177, No Iterations 1
GAMG:  Solving for p, Initial residual = 0.0404134, Final residual = 8.75939e-07, No Iterations 11
time step continuity errors : sum local = 1.18788e-10, global = -6.24048e-12, cumulative = 2.20698e-06
smoothSolver:  Solving for omega, Initial residual = 0.00169391, Final residual = 5.42233e-07, No Iterations 1
smoothSolver:  Solving for k, Initial residual = 0.0236295, Final residual = 7.69887e-09, No Iterations 2
ExecutionTime = 2.34 s  ClockTime = 2 s

Courant Number mean: 0.0138644 max: 0.493226
deltaT = 4.63501e-05
Time = 0.000618139

PIMPLE: iteration 1
smoothSolver:  Solving for Ux, Initial residual = 1.0798e-06, Final residual = 3.3937e-16, No Iterations 1
smoothSolver:  Solving for Uy, Initial residual = 9.15953e-07, Final residual = 9.15953e-07, No Iterations 0
smoothSolver:  Solving for Uz, Initial residual = 8.72926e-07, Final residual = 8.72926e-07, No Iterations 0
GAMG:  Solving for p, Initial residual = 0.999984, Final residual = 0.0374529, No Iterations 1
GAMG:  Solving for p, Initial residual = 0.0468806, Final residual = 0.00211823, No Iterations 2
time step continuity errors : sum local = 3.06806e-06, global = 3.28146e-07, cumulative = 2.53513e-06
GAMG:  Solving for p, Initial residual = 0.99977, Final residual = 0.0374449, No Iterations 1
GAMG:  Solving for p, Initial residual = 0.0468753, Final residual = 5.31544e-07, No Iterations 12
time step continuity errors : sum local = 7.69904e-10, global = 1.371e-10, cumulative = 2.53527e-06
PIMPLE: iteration 2
smoothSolver:  Solving for Ux, Initial residual = 0.0699292, Final residual = 3.73317e-09, No Iterations 2
smoothSolver:  Solving for Uy, Initial residual = 0.0515426, Final residual = 2.27769e-09, No Iterations 2
smoothSolver:  Solving for Uz, Initial residual = 0.049316, Final residual = 2.48066e-09, No Iterations 2
GAMG:  Solving for p, Initial residual = 0.650249, Final residual = 0.0244619, No Iterations 1
GAMG:  Solving for p, Initial residual = 0.172842, Final residual = 0.00778022, No Iterations 2
time step continuity errors : sum local = 3.13259e-06, global = -3.4162e-07, cumulative = 2.19365e-06
GAMG:  Solving for p, Initial residual = 0.254862, Final residual = 0.0129145, No Iterations 1
GAMG:  Solving for p, Initial residual = 0.0409054, Final residual = 8.86107e-07, No Iterations 11
time step continuity errors : sum local = 1.14284e-10, global = -6.06071e-12, cumulative = 2.19364e-06
smoothSolver:  Solving for omega, Initial residual = 0.00163367, Final residual = 5.41609e-07, No Iterations 1
smoothSolver:  Solving for k, Initial residual = 0.0215005, Final residual = 7.52478e-09, No Iterations 2
ExecutionTime = 2.48 s  ClockTime = 2 s

Courant Number mean: 0.0140527 max: 0.493658
deltaT = 4.69456e-05
Time = 0.000665085

PIMPLE: iteration 1
smoothSolver:  Solving for Ux, Initial residual = 1.08047e-06, Final residual = 3.52469e-16, No Iterations 1
smoothSolver:  Solving for Uy, Initial residual = 9.11257e-07, Final residual = 9.11257e-07, No Iterations 0
smoothSolver:  Solving for Uz, Initial residual = 8.67895e-07, Final residual = 8.67895e-07, No Iterations 0
GAMG:  Solving for p, Initial residual = 0.999984, Final residual = 0.0373237, No Iterations 1
GAMG:  Solving for p, Initial residual = 0.0467939, Final residual = 0.00208534, No Iterations 2
time step continuity errors : sum local = 2.96303e-06, global = 3.16789e-07, cumulative = 2.51043e-06
GAMG:  Solving for p, Initial residual = 0.99977, Final residual = 0.0373157, No Iterations 1
GAMG:  Solving for p, Initial residual = 0.0467886, Final residual = 5.2318e-07, No Iterations 12
time step continuity errors : sum local = 7.43385e-10, global = 1.32397e-10, cumulative = 2.51056e-06
PIMPLE: iteration 2
smoothSolver:  Solving for Ux, Initial residual = 0.067472, Final residual = 3.75349e-09, No Iterations 2
smoothSolver:  Solving for Uy, Initial residual = 0.050359, Final residual = 2.32132e-09, No Iterations 2
smoothSolver:  Solving for Uz, Initial residual = 0.0481552, Final residual = 2.54404e-09, No Iterations 2
GAMG:  Solving for p, Initial residual = 0.656224, Final residual = 0.0246085, No Iterations 1
GAMG:  Solving for p, Initial residual = 0.17583, Final residual = 0.00781233, No Iterations 2
time step continuity errors : sum local = 3.02434e-06, global = -3.29792e-07, cumulative = 2.18077e-06
GAMG:  Solving for p, Initial residual = 0.256, Final residual = 0.0129991, No Iterations 1
GAMG:  Solving for p, Initial residual = 0.0413549, Final residual = 8.95345e-07, No Iterations 11
time step continuity errors : sum local = 1.10155e-10, global = -5.89143e-12, cumulative = 2.18076e-06
smoothSolver:  Solving for omega, Initial residual = 0.00157479, Final residual = 5.39775e-07, No Iterations 1
smoothSolver:  Solving for k, Initial residual = 0.0196651, Final residual = 7.35218e-09, No Iterations 2
ExecutionTime = 2.61 s  ClockTime = 2 s

Courant Number mean: 0.0142312 max: 0.494012
deltaT = 4.75146e-05
Time = 0.000712599

PIMPLE: iteration 1
smoothSolver:  Solving for Ux, Initial residual = 1.08094e-06, Final residual = 3.60256e-16, No Iterations 1
smoothSolver:  Solving for Uy, Initial residual = 9.07319e-07, Final residual = 9.07319e-07, No Iterations 0
smoothSolver:  Solving for Uz, Initial residual = 8.63786e-07, Final residual = 8.63786e-07, No Iterations 0
GAMG:  Solving for p, Initial residual = 0.999984, Final residual = 0.0372058, No Iterations 1
GAMG:  Solving for p, Initial residual = 0.0467235, Final residual = 0.00205539, No Iterations 2
time step continuity errors : sum local = 2.86619e-06, global = 3.06261e-07, cumulative = 2.48702e-06
GAMG:  Solving for p, Initial residual = 0.999771, Final residual = 0.0371979, No Iterations 1
GAMG:  Solving for p, Initial residual = 0.0467182, Final residual = 5.15448e-07, No Iterations 12
time step continuity errors : sum local = 7.1879e-10, global = 1.28035e-10, cumulative = 2.48715e-06
PIMPLE: iteration 2
smoothSolver:  Solving for Ux, Initial residual = 0.0652666, Final residual = 3.78177e-09, No Iterations 2
smoothSolver:  Solving for Uy, Initial residual = 0.0492839, Final residual = 2.36801e-09, No Iterations 2
smoothSolver:  Solving for Uz, Initial residual = 0.0471032, Final residual = 2.60935e-09, No Iterations 2
GAMG:  Solving for p, Initial residual = 0.661778, Final residual = 0.0247436, No Iterations 1
GAMG:  Solving for p, Initial residual = 0.178664, Final residual = 0.00784112, No Iterations 2
time step continuity errors : sum local = 2.92463e-06, global = -3.18853e-07, cumulative = 2.1683e-06
GAMG:  Solving for p, Initial residual = 0.256912, Final residual = 0.0130721, No Iterations 1
GAMG:  Solving for p, Initial residual = 0.0417655, Final residual = 9.03709e-07, No Iterations 11
time step continuity errors : sum local = 1.06366e-10, global = -5.73161e-12, cumulative = 2.16829e-06
smoothSolver:  Solving for omega, Initial residual = 0.00151778, Final residual = 5.36886e-07, No Iterations 1
smoothSolver:  Solving for k, Initial residual = 0.018074, Final residual = 7.18766e-09, No Iterations 2
ExecutionTime = 2.73 s  ClockTime = 2 s

Courant Number mean: 0.0144018 max: 0.494374
deltaT = 4.80554e-05
Time = 0.000760655

PIMPLE: iteration 1
smoothSolver:  Solving for Ux, Initial residual = 1.08114e-06, Final residual = 3.6134e-16, No Iterations 1
smoothSolver:  Solving for Uy, Initial residual = 9.04018e-07, Final residual = 9.04018e-07, No Iterations 0
smoothSolver:  Solving for Uz, Initial residual = 8.60259e-07, Final residual = 8.60259e-07, No Iterations 0
GAMG:  Solving for p, Initial residual = 0.999985, Final residual = 0.0370989, No Iterations 1
GAMG:  Solving for p, Initial residual = 0.0466693, Final residual = 0.002028, No Iterations 2
time step continuity errors : sum local = 2.77636e-06, global = 2.96448e-07, cumulative = 2.46474e-06
GAMG:  Solving for p, Initial residual = 0.999772, Final residual = 0.037091, No Iterations 1
GAMG:  Solving for p, Initial residual = 0.0466641, Final residual = 5.08291e-07, No Iterations 12
time step continuity errors : sum local = 6.95864e-10, global = 1.23968e-10, cumulative = 2.46487e-06
PIMPLE: iteration 2
smoothSolver:  Solving for Ux, Initial residual = 0.0632823, Final residual = 3.81358e-09, No Iterations 2
smoothSolver:  Solving for Uy, Initial residual = 0.0483065, Final residual = 2.41498e-09, No Iterations 2
smoothSolver:  Solving for Uz, Initial residual = 0.0461456, Final residual = 2.67524e-09, No Iterations 2
GAMG:  Solving for p, Initial residual = 0.666896, Final residual = 0.0248669, No Iterations 1
GAMG:  Solving for p, Initial residual = 0.181362, Final residual = 0.00786698, No Iterations 2
time step continuity errors : sum local = 2.83218e-06, global = -3.08647e-07, cumulative = 2.15622e-06
GAMG:  Solving for p, Initial residual = 0.257641, Final residual = 0.0131351, No Iterations 1
GAMG:  Solving for p, Initial residual = 0.0421409, Final residual = 9.11314e-07, No Iterations 11
time step continuity errors : sum local = 1.02867e-10, global = -5.58161e-12, cumulative = 2.15621e-06
smoothSolver:  Solving for omega, Initial residual = 0.00146264, Final residual = 5.32683e-07, No Iterations 1
smoothSolver:  Solving for k, Initial residual = 0.0166803, Final residual = 7.02484e-09, No Iterations 2
ExecutionTime = 2.86 s  ClockTime = 3 s

Courant Number mean: 0.0145639 max: 0.495747
deltaT = 4.84677e-05
Time = 0.000809122

PIMPLE: iteration 1
smoothSolver:  Solving for Ux, Initial residual = 1.07879e-06, Final residual = 3.68168e-16, No Iterations 1
smoothSolver:  Solving for Uy, Initial residual = 8.99267e-07, Final residual = 8.99267e-07, No Iterations 0
smoothSolver:  Solving for Uz, Initial residual = 8.55382e-07, Final residual = 8.55382e-07, No Iterations 0
GAMG:  Solving for p, Initial residual = 0.999985, Final residual = 0.0370007, No Iterations 1
GAMG:  Solving for p, Initial residual = 0.0466318, Final residual = 0.00465028, No Iterations 1
time step continuity errors : sum local = 6.23869e-06, global = 2.6615e-07, cumulative = 2.42236e-06
GAMG:  Solving for p, Initial residual = 0.999778, Final residual = 0.0369932, No Iterations 1
GAMG:  Solving for p, Initial residual = 0.0466268, Final residual = 5.01621e-07, No Iterations 12
time step continuity errors : sum local = 6.72966e-10, global = 1.19901e-10, cumulative = 2.42248e-06
PIMPLE: iteration 2
smoothSolver:  Solving for Ux, Initial residual = 0.0614852, Final residual = 3.82008e-09, No Iterations 2
smoothSolver:  Solving for Uy, Initial residual = 0.0474064, Final residual = 2.44265e-09, No Iterations 2
smoothSolver:  Solving for Uz, Initial residual = 0.0452614, Final residual = 2.71897e-09, No Iterations 2
GAMG:  Solving for p, Initial residual = 0.671604, Final residual = 0.0249796, No Iterations 1
GAMG:  Solving for p, Initial residual = 0.183921, Final residual = 0.00789021, No Iterations 2
time step continuity errors : sum local = 2.74014e-06, global = -2.98478e-07, cumulative = 2.124e-06
GAMG:  Solving for p, Initial residual = 0.258191, Final residual = 0.0131888, No Iterations 1
GAMG:  Solving for p, Initial residual = 0.042484, Final residual = 9.18208e-07, No Iterations 11
time step continuity errors : sum local = 9.94075e-11, global = -5.43543e-12, cumulative = 2.124e-06
smoothSolver:  Solving for omega, Initial residual = 0.00140663, Final residual = 5.23775e-07, No Iterations 1
smoothSolver:  Solving for k, Initial residual = 0.0154163, Final residual = 6.81005e-09, No Iterations 2
ExecutionTime = 2.99 s  ClockTime = 3 s

Courant Number mean: 0.0146872 max: 0.498657
deltaT = 4.85981e-05
Time = 0.00085772

PIMPLE: iteration 1
smoothSolver:  Solving for Ux, Initial residual = 1.07053e-06, Final residual = 3.75426e-16, No Iterations 1
smoothSolver:  Solving for Uy, Initial residual = 8.9029e-07, Final residual = 8.9029e-07, No Iterations 0
smoothSolver:  Solving for Uz, Initial residual = 8.46575e-07, Final residual = 8.46575e-07, No Iterations 0
GAMG:  Solving for p, Initial residual = 0.999985, Final residual = 0.0369127, No Iterations 1
GAMG:  Solving for p, Initial residual = 0.0466053, Final residual = 0.00460367, No Iterations 1
time step continuity errors : sum local = 6.02258e-06, global = 2.5716e-07, cumulative = 2.38116e-06
GAMG:  Solving for p, Initial residual = 0.999779, Final residual = 0.0369053, No Iterations 1
GAMG:  Solving for p, Initial residual = 0.0466004, Final residual = 4.95313e-07, No Iterations 12
time step continuity errors : sum local = 6.4798e-10, global = 1.15455e-10, cumulative = 2.38127e-06
PIMPLE: iteration 2
smoothSolver:  Solving for Ux, Initial residual = 0.0598453, Final residual = 3.75339e-09, No Iterations 2
smoothSolver:  Solving for Uy, Initial residual = 0.0465633, Final residual = 2.42088e-09, No Iterations 2
smoothSolver:  Solving for Uz, Initial residual = 0.0444271, Final residual = 2.7069e-09, No Iterations 2
GAMG:  Solving for p, Initial residual = 0.675863, Final residual = 0.0250812, No Iterations 1
GAMG:  Solving for p, Initial residual = 0.186311, Final residual = 0.0184912, No Iterations 1
time step continuity errors : sum local = 6.17182e-06, global = -2.52157e-07, cumulative = 2.12912e-06
GAMG:  Solving for p, Initial residual = 0.121154, Final residual = 0.00612576, No Iterations 2
GAMG:  Solving for p, Initial residual = 0.156766, Final residual = 5.4825e-07, No Iterations 12
time step continuity errors : sum local = 5.15819e-11, global = -1.07252e-12, cumulative = 2.12912e-06
smoothSolver:  Solving for omega, Initial residual = 0.00134601, Final residual = 5.0684e-07, No Iterations 1
smoothSolver:  Solving for k, Initial residual = 0.0142192, Final residual = 6.43157e-09, No Iterations 2
ExecutionTime = 3.12 s  ClockTime = 3 s

Courant Number mean: 0.0147253 max: 0.498419
deltaT = 4.87523e-05
Time = 0.000906473

PIMPLE: iteration 1
smoothSolver:  Solving for Ux, Initial residual = 1.0673e-06, Final residual = 3.79012e-16, No Iterations 1
smoothSolver:  Solving for Uy, Initial residual = 8.82315e-07, Final residual = 8.82315e-07, No Iterations 0
smoothSolver:  Solving for Uz, Initial residual = 8.39613e-07, Final residual = 8.39613e-07, No Iterations 0
GAMG:  Solving for p, Initial residual = 0.999985, Final residual = 0.0368218, No Iterations 1
GAMG:  Solving for p, Initial residual = 0.0465667, Final residual = 0.00454626, No Iterations 1
time step continuity errors : sum local = 5.80447e-06, global = 2.49424e-07, cumulative = 2.37854e-06
GAMG:  Solving for p, Initial residual = 0.999779, Final residual = 0.0368144, No Iterations 1
GAMG:  Solving for p, Initial residual = 0.0465618, Final residual = 4.86582e-07, No Iterations 12
time step continuity errors : sum local = 6.21252e-10, global = 1.10701e-10, cumulative = 2.37865e-06
PIMPLE: iteration 2
smoothSolver:  Solving for Ux, Initial residual = 0.0582467, Final residual = 3.66265e-09, No Iterations 2
smoothSolver:  Solving for Uy, Initial residual = 0.0457919, Final residual = 2.40363e-09, No Iterations 2
smoothSolver:  Solving for Uz, Initial residual = 0.043664, Final residual = 2.69698e-09, No Iterations 2
GAMG:  Solving for p, Initial residual = 0.681189, Final residual = 0.0252102, No Iterations 1
GAMG:  Solving for p, Initial residual = 0.189502, Final residual = 0.0185686, No Iterations 1
time step continuity errors : sum local = 5.94748e-06, global = -2.44527e-07, cumulative = 2.13412e-06
GAMG:  Solving for p, Initial residual = 0.120651, Final residual = 0.00613067, No Iterations 2
GAMG:  Solving for p, Initial residual = 0.154438, Final residual = 5.36993e-07, No Iterations 12
time step continuity errors : sum local = 4.94386e-11, global = -1.03064e-12, cumulative = 2.13412e-06
smoothSolver:  Solving for omega, Initial residual = 0.00128984, Final residual = 4.91567e-07, No Iterations 1
smoothSolver:  Solving for k, Initial residual = 0.0131722, Final residual = 6.11789e-09, No Iterations 2
ExecutionTime = 3.25 s  ClockTime = 3 s

Courant Number mean: 0.0147707 max: 0.498426
deltaT = 4.89063e-05
Time = 0.000955379

PIMPLE: iteration 1
smoothSolver:  Solving for Ux, Initial residual = 1.05994e-06, Final residual = 3.83074e-16, No Iterations 1
smoothSolver:  Solving for Uy, Initial residual = 8.75188e-07, Final residual = 8.75188e-07, No Iterations 0
smoothSolver:  Solving for Uz, Initial residual = 8.32491e-07, Final residual = 8.32491e-07, No Iterations 0
GAMG:  Solving for p, Initial residual = 0.999985, Final residual = 0.0367387, No Iterations 1
GAMG:  Solving for p, Initial residual = 0.0465356, Final residual = 0.00449252, No Iterations 1
time step continuity errors : sum local = 5.60345e-06, global = 2.42344e-07, cumulative = 2.37647e-06
GAMG:  Solving for p, Initial residual = 0.99978, Final residual = 0.0367313, No Iterations 1
GAMG:  Solving for p, Initial residual = 0.0465307, Final residual = 4.78292e-07, No Iterations 12
time step continuity errors : sum local = 5.9657e-10, global = 1.0631e-10, cumulative = 2.37657e-06
PIMPLE: iteration 2
smoothSolver:  Solving for Ux, Initial residual = 0.0567314, Final residual = 3.60779e-09, No Iterations 2
smoothSolver:  Solving for Uy, Initial residual = 0.0450395, Final residual = 2.39298e-09, No Iterations 2
smoothSolver:  Solving for Uz, Initial residual = 0.0429212, Final residual = 2.69614e-09, No Iterations 2
GAMG:  Solving for p, Initial residual = 0.685667, Final residual = 0.0253201, No Iterations 1
GAMG:  Solving for p, Initial residual = 0.192265, Final residual = 0.0186421, No Iterations 1
time step continuity errors : sum local = 5.73973e-06, global = -2.37313e-07, cumulative = 2.13926e-06
GAMG:  Solving for p, Initial residual = 0.120325, Final residual = 0.00613559, No Iterations 2
GAMG:  Solving for p, Initial residual = 0.151958, Final residual = 5.26169e-07, No Iterations 12
time step continuity errors : sum local = 4.75118e-11, global = -9.92117e-13, cumulative = 2.13926e-06
smoothSolver:  Solving for omega, Initial residual = 0.00123728, Final residual = 4.77144e-07, No Iterations 1
smoothSolver:  Solving for k, Initial residual = 0.0122446, Final residual = 5.8349e-09, No Iterations 2
ExecutionTime = 3.38 s  ClockTime = 3 s

Courant Number mean: 0.014816 max: 0.498449
deltaT = 4.90584e-05
Time = 0.00100444

PIMPLE: iteration 1
smoothSolver:  Solving for Ux, Initial residual = 1.0528e-06, Final residual = 3.96369e-16, No Iterations 1
smoothSolver:  Solving for Uy, Initial residual = 8.68518e-07, Final residual = 8.68518e-07, No Iterations 0
smoothSolver:  Solving for Uz, Initial residual = 8.25811e-07, Final residual = 8.25811e-07, No Iterations 0
GAMG:  Solving for p, Initial residual = 0.999985, Final residual = 0.0366654, No Iterations 1
GAMG:  Solving for p, Initial residual = 0.0465142, Final residual = 0.0044423, No Iterations 1
time step continuity errors : sum local = 5.4176e-06, global = 2.35885e-07, cumulative = 2.37514e-06
GAMG:  Solving for p, Initial residual = 0.99978, Final residual = 0.036658, No Iterations 1
GAMG:  Solving for p, Initial residual = 0.0465093, Final residual = 4.7033e-07, No Iterations 12
time step continuity errors : sum local = 5.73594e-10, global = 1.02223e-10, cumulative = 2.37525e-06
PIMPLE: iteration 2
smoothSolver:  Solving for Ux, Initial residual = 0.0553445, Final residual = 3.56251e-09, No Iterations 2
smoothSolver:  Solving for Uy, Initial residual = 0.0443517, Final residual = 2.3856e-09, No Iterations 2
smoothSolver:  Solving for Uz, Initial residual = 0.0422394, Final residual = 2.69854e-09, No Iterations 2
GAMG:  Solving for p, Initial residual = 0.689826, Final residual = 0.0254249, No Iterations 1
GAMG:  Solving for p, Initial residual = 0.19497, Final residual = 0.0187136, No Iterations 1
time step continuity errors : sum local = 5.54757e-06, global = -2.30712e-07, cumulative = 2.14453e-06
GAMG:  Solving for p, Initial residual = 0.119972, Final residual = 0.00613878, No Iterations 2
GAMG:  Solving for p, Initial residual = 0.149584, Final residual = 5.15744e-07, No Iterations 12
time step continuity errors : sum local = 4.57244e-11, global = -9.56511e-13, cumulative = 2.14453e-06
smoothSolver:  Solving for omega, Initial residual = 0.00118787, Final residual = 4.62891e-07, No Iterations 1
smoothSolver:  Solving for k, Initial residual = 0.0114162, Final residual = 5.57989e-09, No Iterations 2
ExecutionTime = 3.5 s  ClockTime = 3 s

Courant Number mean: 0.0148609 max: 0.498512
deltaT = 4.92049e-05
Time = 0.00105364

PIMPLE: iteration 1
smoothSolver:  Solving for Ux, Initial residual = 1.04559e-06, Final residual = 4.0091e-16, No Iterations 1
smoothSolver:  Solving for Uy, Initial residual = 8.6216e-07, Final residual = 8.6216e-07, No Iterations 0
smoothSolver:  Solving for Uz, Initial residual = 8.19469e-07, Final residual = 8.19469e-07, No Iterations 0
GAMG:  Solving for p, Initial residual = 0.999985, Final residual = 0.036599, No Iterations 1
GAMG:  Solving for p, Initial residual = 0.0464989, Final residual = 0.00439522, No Iterations 1
time step continuity errors : sum local = 5.24479e-06, global = 2.29976e-07, cumulative = 2.37451e-06
GAMG:  Solving for p, Initial residual = 0.999781, Final residual = 0.0365916, No Iterations 1
GAMG:  Solving for p, Initial residual = 0.046494, Final residual = 9.87392e-07, No Iterations 11
time step continuity errors : sum local = 1.17826e-09, global = 2.4727e-11, cumulative = 2.37453e-06
PIMPLE: iteration 2
smoothSolver:  Solving for Ux, Initial residual = 0.0540643, Final residual = 3.52462e-09, No Iterations 2
smoothSolver:  Solving for Uy, Initial residual = 0.0437192, Final residual = 2.38047e-09, No Iterations 2
smoothSolver:  Solving for Uz, Initial residual = 0.0416117, Final residual = 2.70296e-09, No Iterations 2
GAMG:  Solving for p, Initial residual = 0.693715, Final residual = 0.0255236, No Iterations 1
GAMG:  Solving for p, Initial residual = 0.197623, Final residual = 0.0187832, No Iterations 1
time step continuity errors : sum local = 5.36863e-06, global = -2.24657e-07, cumulative = 2.14988e-06
GAMG:  Solving for p, Initial residual = 0.119581, Final residual = 0.00614006, No Iterations 2
GAMG:  Solving for p, Initial residual = 0.14735, Final residual = 5.05872e-07, No Iterations 12
time step continuity errors : sum local = 4.40614e-11, global = -9.23474e-13, cumulative = 2.14988e-06
smoothSolver:  Solving for omega, Initial residual = 0.00114135, Final residual = 4.49145e-07, No Iterations 1
smoothSolver:  Solving for k, Initial residual = 0.0106717, Final residual = 5.35069e-09, No Iterations 2
ExecutionTime = 3.63 s  ClockTime = 3 s

Courant Number mean: 0.0149041 max: 0.498544
deltaT = 4.93486e-05
Time = 0.00110299

PIMPLE: iteration 1
smoothSolver:  Solving for Ux, Initial residual = 1.03839e-06, Final residual = 4.01036e-16, No Iterations 1
smoothSolver:  Solving for Uy, Initial residual = 8.56129e-07, Final residual = 8.56129e-07, No Iterations 0
smoothSolver:  Solving for Uz, Initial residual = 8.13442e-07, Final residual = 8.13442e-07, No Iterations 0
GAMG:  Solving for p, Initial residual = 0.999985, Final residual = 0.0365381, No Iterations 1
GAMG:  Solving for p, Initial residual = 0.0464892, Final residual = 0.00435103, No Iterations 1
time step continuity errors : sum local = 5.08402e-06, global = 2.24574e-07, cumulative = 2.37445e-06
GAMG:  Solving for p, Initial residual = 0.999781, Final residual = 0.0365307, No Iterations 1
GAMG:  Solving for p, Initial residual = 0.0464844, Final residual = 9.71684e-07, No Iterations 11
time step continuity errors : sum local = 1.13538e-09, global = 2.38046e-11, cumulative = 2.37447e-06
PIMPLE: iteration 2
smoothSolver:  Solving for Ux, Initial residual = 0.0528855, Final residual = 3.49527e-09, No Iterations 2
smoothSolver:  Solving for Uy, Initial residual = 0.0431365, Final residual = 2.37753e-09, No Iterations 2
smoothSolver:  Solving for Uz, Initial residual = 0.041034, Final residual = 2.70925e-09, No Iterations 2
GAMG:  Solving for p, Initial residual = 0.697386, Final residual = 0.0256169, No Iterations 1
GAMG:  Solving for p, Initial residual = 0.200217, Final residual = 0.0188526, No Iterations 1
time step continuity errors : sum local = 5.2028e-06, global = -2.19127e-07, cumulative = 2.15535e-06
GAMG:  Solving for p, Initial residual = 0.119169, Final residual = 0.00613968, No Iterations 2
GAMG:  Solving for p, Initial residual = 0.145254, Final residual = 4.96555e-07, No Iterations 12
time step continuity errors : sum local = 4.25157e-11, global = -8.92836e-13, cumulative = 2.15534e-06
smoothSolver:  Solving for omega, Initial residual = 0.00109757, Final residual = 4.36138e-07, No Iterations 1
smoothSolver:  Solving for k, Initial residual = 0.0100009, Final residual = 5.14269e-09, No Iterations 2
ExecutionTime = 3.75 s  ClockTime = 3 s

Courant Number mean: 0.0149465 max: 0.49858
deltaT = 4.94892e-05
Time = 0.00115248

PIMPLE: iteration 1
smoothSolver:  Solving for Ux, Initial residual = 1.03115e-06, Final residual = 4.10847e-16, No Iterations 1
smoothSolver:  Solving for Uy, Initial residual = 8.50385e-07, Final residual = 8.50385e-07, No Iterations 0
smoothSolver:  Solving for Uz, Initial residual = 8.07701e-07, Final residual = 8.07701e-07, No Iterations 0
GAMG:  Solving for p, Initial residual = 0.999985, Final residual = 0.0364818, No Iterations 1
GAMG:  Solving for p, Initial residual = 0.0464835, Final residual = 0.00430956, No Iterations 1
time step continuity errors : sum local = 4.93428e-06, global = 2.1964e-07, cumulative = 2.37499e-06
GAMG:  Solving for p, Initial residual = 0.999781, Final residual = 0.0364745, No Iterations 1
GAMG:  Solving for p, Initial residual = 0.0464787, Final residual = 9.56355e-07, No Iterations 11
time step continuity errors : sum local = 1.09499e-09, global = 2.29341e-11, cumulative = 2.37501e-06
PIMPLE: iteration 2
smoothSolver:  Solving for Ux, Initial residual = 0.051796, Final residual = 3.47329e-09, No Iterations 2
smoothSolver:  Solving for Uy, Initial residual = 0.0426015, Final residual = 2.37634e-09, No Iterations 2
smoothSolver:  Solving for Uz, Initial residual = 0.0404995, Final residual = 2.71733e-09, No Iterations 2
GAMG:  Solving for p, Initial residual = 0.700815, Final residual = 0.0257038, No Iterations 1
GAMG:  Solving for p, Initial residual = 0.202752, Final residual = 0.0189192, No Iterations 1
time step continuity errors : sum local = 5.04785e-06, global = -2.14043e-07, cumulative = 2.16096e-06
GAMG:  Solving for p, Initial residual = 0.118728, Final residual = 0.00613742, No Iterations 2
GAMG:  Solving for p, Initial residual = 0.143268, Final residual = 4.87686e-07, No Iterations 12
time step continuity errors : sum local = 4.10739e-11, global = -8.6433e-13, cumulative = 2.16096e-06
smoothSolver:  Solving for omega, Initial residual = 0.00105625, Final residual = 4.2385e-07, No Iterations 1
smoothSolver:  Solving for k, Initial residual = 0.00939279, Final residual = 4.95536e-09, No Iterations 2
ExecutionTime = 3.88 s  ClockTime = 4 s

Courant Number mean: 0.014988 max: 0.498624
deltaT = 4.96257e-05
Time = 0.00120211

PIMPLE: iteration 1
smoothSolver:  Solving for Ux, Initial residual = 1.0239e-06, Final residual = 4.21905e-16, No Iterations 1
smoothSolver:  Solving for Uy, Initial residual = 8.44863e-07, Final residual = 8.44863e-07, No Iterations 0
smoothSolver:  Solving for Uz, Initial residual = 8.02175e-07, Final residual = 8.02175e-07, No Iterations 0
GAMG:  Solving for p, Initial residual = 0.999986, Final residual = 0.0364316, No Iterations 1
GAMG:  Solving for p, Initial residual = 0.046484, Final residual = 0.00427051, No Iterations 1
time step continuity errors : sum local = 4.79407e-06, global = 2.15124e-07, cumulative = 2.37609e-06
GAMG:  Solving for p, Initial residual = 0.999782, Final residual = 0.0364243, No Iterations 1
GAMG:  Solving for p, Initial residual = 0.0464792, Final residual = 9.41403e-07, No Iterations 11
time step continuity errors : sum local = 1.05682e-09, global = 2.21099e-11, cumulative = 2.37611e-06
PIMPLE: iteration 2
smoothSolver:  Solving for Ux, Initial residual = 0.0507881, Final residual = 3.45508e-09, No Iterations 2
smoothSolver:  Solving for Uy, Initial residual = 0.0421084, Final residual = 2.37715e-09, No Iterations 2
smoothSolver:  Solving for Uz, Initial residual = 0.0400036, Final residual = 2.72661e-09, No Iterations 2
GAMG:  Solving for p, Initial residual = 0.70404, Final residual = 0.0257861, No Iterations 1
GAMG:  Solving for p, Initial residual = 0.205223, Final residual = 0.0189825, No Iterations 1
time step continuity errors : sum local = 4.90246e-06, global = -2.09379e-07, cumulative = 2.16673e-06
GAMG:  Solving for p, Initial residual = 0.118268, Final residual = 0.00613366, No Iterations 2
GAMG:  Solving for p, Initial residual = 0.141397, Final residual = 4.79275e-07, No Iterations 12
time step continuity errors : sum local = 3.97245e-11, global = -8.37701e-13, cumulative = 2.16673e-06
smoothSolver:  Solving for omega, Initial residual = 0.00101719, Final residual = 4.11971e-07, No Iterations 1
smoothSolver:  Solving for k, Initial residual = 0.0088396, Final residual = 4.77859e-09, No Iterations 2
ExecutionTime = 3.99 s  ClockTime = 4 s

Courant Number mean: 0.0150284 max: 0.498668
deltaT = 4.97583e-05
Time = 0.00125186

PIMPLE: iteration 1
smoothSolver:  Solving for Ux, Initial residual = 1.01658e-06, Final residual = 4.25835e-16, No Iterations 1
smoothSolver:  Solving for Uy, Initial residual = 8.39568e-07, Final residual = 8.39568e-07, No Iterations 0
smoothSolver:  Solving for Uz, Initial residual = 7.96818e-07, Final residual = 7.96818e-07, No Iterations 0
GAMG:  Solving for p, Initial residual = 0.999986, Final residual = 0.0363845, No Iterations 1
GAMG:  Solving for p, Initial residual = 0.0464889, Final residual = 0.00423345, No Iterations 1
time step continuity errors : sum local = 4.66231e-06, global = 2.10991e-07, cumulative = 2.37772e-06
GAMG:  Solving for p, Initial residual = 0.999782, Final residual = 0.0363772, No Iterations 1
GAMG:  Solving for p, Initial residual = 0.0464842, Final residual = 9.26754e-07, No Iterations 11
time step continuity errors : sum local = 1.02064e-09, global = 2.13272e-11, cumulative = 2.37774e-06
PIMPLE: iteration 2
smoothSolver:  Solving for Ux, Initial residual = 0.0498543, Final residual = 3.4407e-09, No Iterations 2
smoothSolver:  Solving for Uy, Initial residual = 0.0416539, Final residual = 2.37973e-09, No Iterations 2
smoothSolver:  Solving for Uz, Initial residual = 0.0395442, Final residual = 2.73695e-09, No Iterations 2
GAMG:  Solving for p, Initial residual = 0.707091, Final residual = 0.0258663, No Iterations 1
GAMG:  Solving for p, Initial residual = 0.207651, Final residual = 0.0190462, No Iterations 1
time step continuity errors : sum local = 4.76654e-06, global = -2.05112e-07, cumulative = 2.17263e-06
GAMG:  Solving for p, Initial residual = 0.117799, Final residual = 0.0061292, No Iterations 2
GAMG:  Solving for p, Initial residual = 0.139658, Final residual = 4.71362e-07, No Iterations 12
time step continuity errors : sum local = 3.84589e-11, global = -8.12786e-13, cumulative = 2.17263e-06
smoothSolver:  Solving for omega, Initial residual = 0.000980227, Final residual = 4.00411e-07, No Iterations 1
smoothSolver:  Solving for k, Initial residual = 0.00833494, Final residual = 4.61104e-09, No Iterations 2
ExecutionTime = 4.12 s  ClockTime = 4 s

Courant Number mean: 0.0150675 max: 0.498711
deltaT = 4.98869e-05
Time = 0.00130175

PIMPLE: iteration 1
smoothSolver:  Solving for Ux, Initial residual = 1.00923e-06, Final residual = 4.26368e-16, No Iterations 1
smoothSolver:  Solving for Uy, Initial residual = 8.34468e-07, Final residual = 8.34468e-07, No Iterations 0
smoothSolver:  Solving for Uz, Initial residual = 7.91624e-07, Final residual = 7.91624e-07, No Iterations 0
GAMG:  Solving for p, Initial residual = 0.999986, Final residual = 0.0363414, No Iterations 1
GAMG:  Solving for p, Initial residual = 0.0464976, Final residual = 0.00419863, No Iterations 1
time step continuity errors : sum local = 4.53868e-06, global = 2.0722e-07, cumulative = 2.37985e-06
GAMG:  Solving for p, Initial residual = 0.999782, Final residual = 0.0363341, No Iterations 1
GAMG:  Solving for p, Initial residual = 0.0464928, Final residual = 9.12325e-07, No Iterations 11
time step continuity errors : sum local = 9.8622e-10, global = 2.05811e-11, cumulative = 2.37987e-06
PIMPLE: iteration 2
smoothSolver:  Solving for Ux, Initial residual = 0.0489861, Final residual = 3.42907e-09, No Iterations 2
smoothSolver:  Solving for Uy, Initial residual = 0.0412352, Final residual = 2.38352e-09, No Iterations 2
smoothSolver:  Solving for Uz, Initial residual = 0.0391177, Final residual = 2.74763e-09, No Iterations 2
GAMG:  Solving for p, Initial residual = 0.70998, Final residual = 0.025943, No Iterations 1
GAMG:  Solving for p, Initial residual = 0.210024, Final residual = 0.0191085, No Iterations 1
time step continuity errors : sum local = 4.63871e-06, global = -2.01198e-07, cumulative = 2.17867e-06
GAMG:  Solving for p, Initial residual = 0.11731, Final residual = 0.00612349, No Iterations 2
GAMG:  Solving for p, Initial residual = 0.138024, Final residual = 4.63888e-07, No Iterations 12
time step continuity errors : sum local = 3.72716e-11, global = -7.89434e-13, cumulative = 2.17867e-06
smoothSolver:  Solving for omega, Initial residual = 0.000945234, Final residual = 3.89047e-07, No Iterations 1
smoothSolver:  Solving for k, Initial residual = 0.00787193, Final residual = 4.44913e-09, No Iterations 2
ExecutionTime = 4.24 s  ClockTime = 4 s

Courant Number mean: 0.0151056 max: 0.498763
deltaT = 5.00106e-05
Time = 0.00135176

PIMPLE: iteration 1
smoothSolver:  Solving for Ux, Initial residual = 1.00181e-06, Final residual = 4.38857e-16, No Iterations 1
smoothSolver:  Solving for Uy, Initial residual = 8.29458e-07, Final residual = 8.29458e-07, No Iterations 0
smoothSolver:  Solving for Uz, Initial residual = 7.86595e-07, Final residual = 7.86595e-07, No Iterations 0
GAMG:  Solving for p, Initial residual = 0.999986, Final residual = 0.0363032, No Iterations 1
GAMG:  Solving for p, Initial residual = 0.046512, Final residual = 0.00416603, No Iterations 1
time step continuity errors : sum local = 4.42247e-06, global = 2.03775e-07, cumulative = 2.38245e-06
GAMG:  Solving for p, Initial residual = 0.999783, Final residual = 0.036296, No Iterations 1
GAMG:  Solving for p, Initial residual = 0.0465072, Final residual = 8.98104e-07, No Iterations 11
time step continuity errors : sum local = 9.5339e-10, global = 1.9868e-11, cumulative = 2.38247e-06
PIMPLE: iteration 2
smoothSolver:  Solving for Ux, Initial residual = 0.0481744, Final residual = 3.41984e-09, No Iterations 2
smoothSolver:  Solving for Uy, Initial residual = 0.0408465, Final residual = 2.38745e-09, No Iterations 2
smoothSolver:  Solving for Uz, Initial residual = 0.0387209, Final residual = 2.75899e-09, No Iterations 2
GAMG:  Solving for p, Initial residual = 0.712707, Final residual = 0.0260161, No Iterations 1
GAMG:  Solving for p, Initial residual = 0.212348, Final residual = 0.019169, No Iterations 1
time step continuity errors : sum local = 4.51819e-06, global = -1.97612e-07, cumulative = 2.18485e-06
GAMG:  Solving for p, Initial residual = 0.116802, Final residual = 0.00611637, No Iterations 2
GAMG:  Solving for p, Initial residual = 0.136482, Final residual = 4.56779e-07, No Iterations 12
time step continuity errors : sum local = 3.61532e-11, global = -7.6748e-13, cumulative = 2.18485e-06
smoothSolver:  Solving for omega, Initial residual = 0.000912094, Final residual = 3.77794e-07, No Iterations 1
smoothSolver:  Solving for k, Initial residual = 0.00744554, Final residual = 4.29659e-09, No Iterations 2
ExecutionTime = 4.36 s  ClockTime = 4 s

Courant Number mean: 0.0151421 max: 0.498818
deltaT = 5.0129e-05
Time = 0.00140189

PIMPLE: iteration 1
smoothSolver:  Solving for Ux, Initial residual = 9.94293e-07, Final residual = 9.94293e-07, No Iterations 0
smoothSolver:  Solving for Uy, Initial residual = 8.24528e-07, Final residual = 8.24528e-07, No Iterations 0
smoothSolver:  Solving for Uz, Initial residual = 7.81691e-07, Final residual = 7.81691e-07, No Iterations 0
GAMG:  Solving for p, Initial residual = 0.999986, Final residual = 0.0362708, No Iterations 1
GAMG:  Solving for p, Initial residual = 0.0465331, Final residual = 0.00413555, No Iterations 1
time step continuity errors : sum local = 4.31293e-06, global = 2.00629e-07, cumulative = 2.38548e-06
GAMG:  Solving for p, Initial residual = 0.999783, Final residual = 0.0362636, No Iterations 1
GAMG:  Solving for p, Initial residual = 0.0465284, Final residual = 8.84079e-07, No Iterations 11
time step continuity errors : sum local = 9.22e-10, global = 1.91848e-11, cumulative = 2.3855e-06
PIMPLE: iteration 2
smoothSolver:  Solving for Ux, Initial residual = 0.0474154, Final residual = 3.41226e-09, No Iterations 2
smoothSolver:  Solving for Uy, Initial residual = 0.0404862, Final residual = 2.39206e-09, No Iterations 2
smoothSolver:  Solving for Uz, Initial residual = 0.0383513, Final residual = 2.7714e-09, No Iterations 2
GAMG:  Solving for p, Initial residual = 0.71526, Final residual = 0.0260862, No Iterations 1
GAMG:  Solving for p, Initial residual = 0.214637, Final residual = 0.0192311, No Iterations 1
time step continuity errors : sum local = 4.40479e-06, global = -1.94316e-07, cumulative = 2.19118e-06
GAMG:  Solving for p, Initial residual = 0.116295, Final residual = 0.0061089, No Iterations 2
GAMG:  Solving for p, Initial residual = 0.135051, Final residual = 4.50114e-07, No Iterations 12
time step continuity errors : sum local = 3.50994e-11, global = -7.46812e-13, cumulative = 2.19118e-06
smoothSolver:  Solving for omega, Initial residual = 0.000880698, Final residual = 3.66876e-07, No Iterations 1
smoothSolver:  Solving for k, Initial residual = 0.0070524, Final residual = 4.15284e-09, No Iterations 2
ExecutionTime = 4.49 s  ClockTime = 4 s

Courant Number mean: 0.0151771 max: 0.498844
deltaT = 5.02452e-05
Time = 0.00145214

PIMPLE: iteration 1
smoothSolver:  Solving for Ux, Initial residual = 9.86735e-07, Final residual = 9.86735e-07, No Iterations 0
smoothSolver:  Solving for Uy, Initial residual = 8.19757e-07, Final residual = 8.19757e-07, No Iterations 0
smoothSolver:  Solving for Uz, Initial residual = 7.7693e-07, Final residual = 7.7693e-07, No Iterations 0
GAMG:  Solving for p, Initial residual = 0.999986, Final residual = 0.036221, No Iterations 1
GAMG:  Solving for p, Initial residual = 0.046578, Final residual = 0.00412319, No Iterations 1
time step continuity errors : sum local = 4.2246e-06, global = 1.96857e-07, cumulative = 2.38804e-06
GAMG:  Solving for p, Initial residual = 0.999783, Final residual = 0.0362138, No Iterations 1
GAMG:  Solving for p, Initial residual = 0.0465733, Final residual = 8.78126e-07, No Iterations 11
time step continuity errors : sum local = 8.99725e-10, global = 1.87141e-11, cumulative = 2.38806e-06
PIMPLE: iteration 2
smoothSolver:  Solving for Ux, Initial residual = 0.0467129, Final residual = 3.40784e-09, No Iterations 2
smoothSolver:  Solving for Uy, Initial residual = 0.0401592, Final residual = 2.3979e-09, No Iterations 2
smoothSolver:  Solving for Uz, Initial residual = 0.038014, Final residual = 2.78453e-09, No Iterations 2
GAMG:  Solving for p, Initial residual = 0.717687, Final residual = 0.0261361, No Iterations 1
GAMG:  Solving for p, Initial residual = 0.215415, Final residual = 0.0192414, No Iterations 1
time step continuity errors : sum local = 4.3165e-06, global = -1.90319e-07, cumulative = 2.19774e-06
GAMG:  Solving for p, Initial residual = 0.116393, Final residual = 0.00610603, No Iterations 2
GAMG:  Solving for p, Initial residual = 0.134232, Final residual = 4.47653e-07, No Iterations 12
time step continuity errors : sum local = 3.43692e-11, global = -7.30858e-13, cumulative = 2.19774e-06
smoothSolver:  Solving for omega, Initial residual = 0.000851013, Final residual = 3.56591e-07, No Iterations 1
smoothSolver:  Solving for k, Initial residual = 0.00668972, Final residual = 4.01783e-09, No Iterations 2
ExecutionTime = 4.61 s  ClockTime = 4 s

Courant Number mean: 0.0152115 max: 0.4989
deltaT = 5.0356e-05
Time = 0.00150249

PIMPLE: iteration 1
smoothSolver:  Solving for Ux, Initial residual = 9.79106e-07, Final residual = 9.79106e-07, No Iterations 0
[...]
GAMG:  Solving for p, Initial residual = 0.0546113, Final residual = 6.40962e-07, No Iterations 11
time step continuity errors : sum local = 6.34534e-11, global = 6.67086e-12, cumulative = 2.91442e-06
PIMPLE: iteration 2
smoothSolver:  Solving for Ux, Initial residual = 0.00210877, Final residual = 6.06675e-07, No Iterations 1
smoothSolver:  Solving for Uy, Initial residual = 0.016467, Final residual = 9.48989e-09, No Iterations 2
smoothSolver:  Solving for Uz, Initial residual = 0.0159472, Final residual = 1.04868e-08, No Iterations 2
GAMG:  Solving for p, Initial residual = 0.761315, Final residual = 0.0303527, No Iterations 1
GAMG:  Solving for p, Initial residual = 0.323891, Final residual = 0.0312977, No Iterations 1
time step continuity errors : sum local = 5.21042e-07, global = -9.36055e-09, cumulative = 2.90505e-06
GAMG:  Solving for p, Initial residual = 0.0953097, Final residual = 0.0056485, No Iterations 2
GAMG:  Solving for p, Initial residual = 0.0549413, Final residual = 5.62233e-07, No Iterations 11
time step continuity errors : sum local = 6.64636e-12, global = -1.82821e-13, cumulative = 2.90505e-06
smoothSolver:  Solving for omega, Initial residual = 4.15483e-05, Final residual = 1.07784e-08, No Iterations 1
smoothSolver:  Solving for k, Initial residual = 0.00029159, Final residual = 4.43777e-08, No Iterations 1
ExecutionTime = 77.96 s  ClockTime = 77 s

Courant Number mean: 0.0173704 max: 0.499822
deltaT = 5.75328e-05
Time = 0.0292463

PIMPLE: iteration 1
smoothSolver:  Solving for Ux, Initial residual = 1.96287e-08, Final residual = 1.96287e-08, No Iterations 0
smoothSolver:  Solving for Uy, Initial residual = 1.0226e-07, Final residual = 1.0226e-07, No Iterations 0
smoothSolver:  Solving for Uz, Initial residual = 1.08607e-07, Final residual = 1.08607e-07, No Iterations 0
GAMG:  Solving for p, Initial residual = 0.999982, Final residual = 0.039562, No Iterations 1
GAMG:  Solving for p, Initial residual = 0.0546104, Final residual = 0.0052589, No Iterations 1
time step continuity errors : sum local = 5.20291e-07, global = 8.86702e-09, cumulative = 2.91392e-06
GAMG:  Solving for p, Initial residual = 0.999781, Final residual = 0.0395543, No Iterations 1
GAMG:  Solving for p, Initial residual = 0.054605, Final residual = 6.41724e-07, No Iterations 11
time step continuity errors : sum local = 6.34893e-11, global = 6.68498e-12, cumulative = 2.91393e-06
PIMPLE: iteration 2
smoothSolver:  Solving for Ux, Initial residual = 0.00210464, Final residual = 6.06581e-07, No Iterations 1
smoothSolver:  Solving for Uy, Initial residual = 0.0164314, Final residual = 9.49613e-09, No Iterations 2
smoothSolver:  Solving for Uz, Initial residual = 0.0159291, Final residual = 1.05032e-08, No Iterations 2
GAMG:  Solving for p, Initial residual = 0.761271, Final residual = 0.0303547, No Iterations 1
GAMG:  Solving for p, Initial residual = 0.323779, Final residual = 0.0312963, No Iterations 1
time step continuity errors : sum local = 5.20822e-07, global = -9.35084e-09, cumulative = 2.90458e-06
GAMG:  Solving for p, Initial residual = 0.0952849, Final residual = 0.00564742, No Iterations 2
GAMG:  Solving for p, Initial residual = 0.0549053, Final residual = 5.62347e-07, No Iterations 11
time step continuity errors : sum local = 6.64944e-12, global = -1.82771e-13, cumulative = 2.90458e-06
smoothSolver:  Solving for omega, Initial residual = 4.14791e-05, Final residual = 1.07571e-08, No Iterations 1
smoothSolver:  Solving for k, Initial residual = 0.00029132, Final residual = 4.43226e-08, No Iterations 1
ExecutionTime = 78.11 s  ClockTime = 77 s

Courant Number mean: 0.0173766 max: 0.499821
deltaT = 5.75534e-05
Time = 0.0293039

PIMPLE: iteration 1
smoothSolver:  Solving for Ux, Initial residual = 1.95899e-08, Final residual = 1.95899e-08, No Iterations 0
smoothSolver:  Solving for Uy, Initial residual = 1.01979e-07, Final residual = 1.01979e-07, No Iterations 0
smoothSolver:  Solving for Uz, Initial residual = 1.08413e-07, Final residual = 1.08413e-07, No Iterations 0
GAMG:  Solving for p, Initial residual = 0.999981, Final residual = 0.0395663, No Iterations 1
GAMG:  Solving for p, Initial residual = 0.054604, Final residual = 0.00525987, No Iterations 1
time step continuity errors : sum local = 5.20068e-07, global = 8.85796e-09, cumulative = 2.91344e-06
GAMG:  Solving for p, Initial residual = 0.999781, Final residual = 0.0395586, No Iterations 1
GAMG:  Solving for p, Initial residual = 0.0545986, Final residual = 6.42481e-07, No Iterations 11
time step continuity errors : sum local = 6.35251e-11, global = 6.69862e-12, cumulative = 2.91344e-06
PIMPLE: iteration 2
smoothSolver:  Solving for Ux, Initial residual = 0.00210056, Final residual = 6.06493e-07, No Iterations 1
smoothSolver:  Solving for Uy, Initial residual = 0.016396, Final residual = 9.50247e-09, No Iterations 2
smoothSolver:  Solving for Uz, Initial residual = 0.0159112, Final residual = 1.05196e-08, No Iterations 2
GAMG:  Solving for p, Initial residual = 0.761233, Final residual = 0.0303565, No Iterations 1
GAMG:  Solving for p, Initial residual = 0.323672, Final residual = 0.0312952, No Iterations 1
time step continuity errors : sum local = 5.20601e-07, global = -9.34132e-09, cumulative = 2.9041e-06
GAMG:  Solving for p, Initial residual = 0.0952624, Final residual = 0.00564642, No Iterations 2
GAMG:  Solving for p, Initial residual = 0.0548701, Final residual = 5.62457e-07, No Iterations 11
time step continuity errors : sum local = 6.65238e-12, global = -1.82735e-13, cumulative = 2.9041e-06
smoothSolver:  Solving for omega, Initial residual = 4.14101e-05, Final residual = 1.07359e-08, No Iterations 1
smoothSolver:  Solving for k, Initial residual = 0.000291052, Final residual = 4.42681e-08, No Iterations 1
ExecutionTime = 78.25 s  ClockTime = 77 s

Courant Number mean: 0.0173828 max: 0.499821
deltaT = 5.7574e-05
Time = 0.0293614

PIMPLE: iteration 1
smoothSolver:  Solving for Ux, Initial residual = 1.95518e-08, Final residual = 1.95518e-08, No Iterations 0
smoothSolver:  Solving for Uy, Initial residual = 1.01701e-07, Final residual = 1.01701e-07, No Iterations 0
smoothSolver:  Solving for Uz, Initial residual = 1.08221e-07, Final residual = 1.08221e-07, No Iterations 0
GAMG:  Solving for p, Initial residual = 0.999981, Final residual = 0.0395706, No Iterations 1
GAMG:  Solving for p, Initial residual = 0.0545972, Final residual = 0.0052608, No Iterations 1
time step continuity errors : sum local = 5.19845e-07, global = 8.84915e-09, cumulative = 2.91295e-06
GAMG:  Solving for p, Initial residual = 0.999781, Final residual = 0.0395629, No Iterations 1
GAMG:  Solving for p, Initial residual = 0.0545918, Final residual = 6.43222e-07, No Iterations 11
time step continuity errors : sum local = 6.35599e-11, global = 6.71134e-12, cumulative = 2.91296e-06
PIMPLE: iteration 2
smoothSolver:  Solving for Ux, Initial residual = 0.00209651, Final residual = 6.0641e-07, No Iterations 1
smoothSolver:  Solving for Uy, Initial residual = 0.0163607, Final residual = 9.50893e-09, No Iterations 2
smoothSolver:  Solving for Uz, Initial residual = 0.0158934, Final residual = 1.05361e-08, No Iterations 2
GAMG:  Solving for p, Initial residual = 0.761196, Final residual = 0.0303589, No Iterations 1
GAMG:  Solving for p, Initial residual = 0.32357, Final residual = 0.0312947, No Iterations 1
time step continuity errors : sum local = 5.20392e-07, global = -9.33175e-09, cumulative = 2.90362e-06
GAMG:  Solving for p, Initial residual = 0.0952431, Final residual = 0.00564561, No Iterations 2
GAMG:  Solving for p, Initial residual = 0.0548368, Final residual = 5.62587e-07, No Iterations 11
time step continuity errors : sum local = 6.65538e-12, global = -1.82694e-13, cumulative = 2.90362e-06
smoothSolver:  Solving for omega, Initial residual = 4.13413e-05, Final residual = 1.07149e-08, No Iterations 1
smoothSolver:  Solving for k, Initial residual = 0.000290785, Final residual = 4.42144e-08, No Iterations 1
ExecutionTime = 78.39 s  ClockTime = 77 s

Courant Number mean: 0.017389 max: 0.499823
deltaT = 5.75944e-05
Time = 0.029419

PIMPLE: iteration 1
smoothSolver:  Solving for Ux, Initial residual = 1.95141e-08, Final residual = 1.95141e-08, No Iterations 0
smoothSolver:  Solving for Uy, Initial residual = 1.01418e-07, Final residual = 1.01418e-07, No Iterations 0
smoothSolver:  Solving for Uz, Initial residual = 1.08028e-07, Final residual = 1.08028e-07, No Iterations 0
GAMG:  Solving for p, Initial residual = 0.999981, Final residual = 0.039575, No Iterations 1
GAMG:  Solving for p, Initial residual = 0.0545901, Final residual = 0.00526169, No Iterations 1
time step continuity errors : sum local = 5.19618e-07, global = 8.84033e-09, cumulative = 2.91246e-06
GAMG:  Solving for p, Initial residual = 0.999781, Final residual = 0.0395673, No Iterations 1
GAMG:  Solving for p, Initial residual = 0.0545847, Final residual = 6.43959e-07, No Iterations 11
time step continuity errors : sum local = 6.35943e-11, global = 6.72362e-12, cumulative = 2.91247e-06
PIMPLE: iteration 2
smoothSolver:  Solving for Ux, Initial residual = 0.0020925, Final residual = 6.06328e-07, No Iterations 1
smoothSolver:  Solving for Uy, Initial residual = 0.0163256, Final residual = 9.5153e-09, No Iterations 2
smoothSolver:  Solving for Uz, Initial residual = 0.0158756, Final residual = 1.05524e-08, No Iterations 2
GAMG:  Solving for p, Initial residual = 0.761157, Final residual = 0.0303608, No Iterations 1
GAMG:  Solving for p, Initial residual = 0.323458, Final residual = 0.031293, No Iterations 1
time step continuity errors : sum local = 5.20176e-07, global = -9.32247e-09, cumulative = 2.90315e-06
GAMG:  Solving for p, Initial residual = 0.0952199, Final residual = 0.00564458, No Iterations 2
GAMG:  Solving for p, Initial residual = 0.0548018, Final residual = 5.62682e-07, No Iterations 11
time step continuity errors : sum local = 6.65822e-12, global = -1.82671e-13, cumulative = 2.90315e-06
smoothSolver:  Solving for omega, Initial residual = 4.12725e-05, Final residual = 1.0694e-08, No Iterations 1
smoothSolver:  Solving for k, Initial residual = 0.000290518, Final residual = 4.41605e-08, No Iterations 1
ExecutionTime = 78.55 s  ClockTime = 77 s

Courant Number mean: 0.0173952 max: 0.499823
deltaT = 5.76148e-05
Time = 0.0294766

PIMPLE: iteration 1
smoothSolver:  Solving for Ux, Initial residual = 1.94752e-08, Final residual = 1.94752e-08, No Iterations 0
smoothSolver:  Solving for Uy, Initial residual = 1.01139e-07, Final residual = 1.01139e-07, No Iterations 0
smoothSolver:  Solving for Uz, Initial residual = 1.07837e-07, Final residual = 1.07837e-07, No Iterations 0
GAMG:  Solving for p, Initial residual = 0.999981, Final residual = 0.0395791, No Iterations 1
GAMG:  Solving for p, Initial residual = 0.0545827, Final residual = 0.00526253, No Iterations 1
time step continuity errors : sum local = 5.19393e-07, global = 8.83157e-09, cumulative = 2.91198e-06
GAMG:  Solving for p, Initial residual = 0.999781, Final residual = 0.0395714, No Iterations 1
GAMG:  Solving for p, Initial residual = 0.0545773, Final residual = 6.44692e-07, No Iterations 11
time step continuity errors : sum local = 6.3629e-11, global = 6.73562e-12, cumulative = 2.91199e-06
PIMPLE: iteration 2
smoothSolver:  Solving for Ux, Initial residual = 0.00208851, Final residual = 6.06252e-07, No Iterations 1
smoothSolver:  Solving for Uy, Initial residual = 0.0162907, Final residual = 9.52171e-09, No Iterations 2
smoothSolver:  Solving for Uz, Initial residual = 0.0158579, Final residual = 1.05687e-08, No Iterations 2
GAMG:  Solving for p, Initial residual = 0.761126, Final residual = 0.0303627, No Iterations 1
GAMG:  Solving for p, Initial residual = 0.323352, Final residual = 0.0312921, No Iterations 1
time step continuity errors : sum local = 5.19963e-07, global = -9.31315e-09, cumulative = 2.90267e-06
GAMG:  Solving for p, Initial residual = 0.0952002, Final residual = 0.00564396, No Iterations 2
GAMG:  Solving for p, Initial residual = 0.054771, Final residual = 5.62842e-07, No Iterations 11
time step continuity errors : sum local = 6.6615e-12, global = -1.82657e-13, cumulative = 2.90267e-06
smoothSolver:  Solving for omega, Initial residual = 4.12039e-05, Final residual = 1.06731e-08, No Iterations 1
smoothSolver:  Solving for k, Initial residual = 0.000290251, Final residual = 4.41075e-08, No Iterations 1
ExecutionTime = 78.69 s  ClockTime = 78 s

Courant Number mean: 0.0174013 max: 0.499822
deltaT = 5.76353e-05
Time = 0.0295343

PIMPLE: iteration 1
smoothSolver:  Solving for Ux, Initial residual = 1.94384e-08, Final residual = 1.94384e-08, No Iterations 0
smoothSolver:  Solving for Uy, Initial residual = 1.00863e-07, Final residual = 1.00863e-07, No Iterations 0
smoothSolver:  Solving for Uz, Initial residual = 1.07644e-07, Final residual = 1.07644e-07, No Iterations 0
GAMG:  Solving for p, Initial residual = 0.999981, Final residual = 0.0395828, No Iterations 1
GAMG:  Solving for p, Initial residual = 0.0545749, Final residual = 0.00526334, No Iterations 1
time step continuity errors : sum local = 5.19171e-07, global = 8.82282e-09, cumulative = 2.9115e-06
GAMG:  Solving for p, Initial residual = 0.999781, Final residual = 0.0395751, No Iterations 1
GAMG:  Solving for p, Initial residual = 0.0545695, Final residual = 6.45441e-07, No Iterations 11
time step continuity errors : sum local = 6.36658e-11, global = 6.74735e-12, cumulative = 2.9115e-06
PIMPLE: iteration 2
smoothSolver:  Solving for Ux, Initial residual = 0.00208454, Final residual = 6.06185e-07, No Iterations 1
smoothSolver:  Solving for Uy, Initial residual = 0.0162559, Final residual = 9.5282e-09, No Iterations 2
smoothSolver:  Solving for Uz, Initial residual = 0.0158403, Final residual = 1.05851e-08, No Iterations 2
GAMG:  Solving for p, Initial residual = 0.7611, Final residual = 0.0303646, No Iterations 1
GAMG:  Solving for p, Initial residual = 0.323248, Final residual = 0.0312911, No Iterations 1
time step continuity errors : sum local = 5.19752e-07, global = -9.30411e-09, cumulative = 2.9022e-06
GAMG:  Solving for p, Initial residual = 0.0951793, Final residual = 0.00564311, No Iterations 2
GAMG:  Solving for p, Initial residual = 0.0547388, Final residual = 5.62957e-07, No Iterations 11
time step continuity errors : sum local = 6.66436e-12, global = -1.82649e-13, cumulative = 2.9022e-06
smoothSolver:  Solving for omega, Initial residual = 4.11355e-05, Final residual = 1.06521e-08, No Iterations 1
smoothSolver:  Solving for k, Initial residual = 0.000289985, Final residual = 4.40549e-08, No Iterations 1
ExecutionTime = 78.84 s  ClockTime = 78 s

Courant Number mean: 0.0174075 max: 0.499822
deltaT = 5.76559e-05
Time = 0.0295919

PIMPLE: iteration 1
smoothSolver:  Solving for Ux, Initial residual = 1.93982e-08, Final residual = 1.93982e-08, No Iterations 0
smoothSolver:  Solving for Uy, Initial residual = 1.00583e-07, Final residual = 1.00583e-07, No Iterations 0
smoothSolver:  Solving for Uz, Initial residual = 1.07454e-07, Final residual = 1.07454e-07, No Iterations 0
GAMG:  Solving for p, Initial residual = 0.999981, Final residual = 0.0395863, No Iterations 1
GAMG:  Solving for p, Initial residual = 0.0545674, Final residual = 0.00526417, No Iterations 1
time step continuity errors : sum local = 5.18956e-07, global = 8.81417e-09, cumulative = 2.91101e-06
GAMG:  Solving for p, Initial residual = 0.999781, Final residual = 0.0395786, No Iterations 1
GAMG:  Solving for p, Initial residual = 0.054562, Final residual = 6.46189e-07, No Iterations 11
time step continuity errors : sum local = 6.37031e-11, global = 6.75887e-12, cumulative = 2.91102e-06
PIMPLE: iteration 2
smoothSolver:  Solving for Ux, Initial residual = 0.0020806, Final residual = 6.06118e-07, No Iterations 1
smoothSolver:  Solving for Uy, Initial residual = 0.0162213, Final residual = 9.53473e-09, No Iterations 2
smoothSolver:  Solving for Uz, Initial residual = 0.0158228, Final residual = 1.06016e-08, No Iterations 2
GAMG:  Solving for p, Initial residual = 0.761074, Final residual = 0.0303665, No Iterations 1
GAMG:  Solving for p, Initial residual = 0.323143, Final residual = 0.0312902, No Iterations 1
time step continuity errors : sum local = 5.19547e-07, global = -9.29471e-09, cumulative = 2.90173e-06
GAMG:  Solving for p, Initial residual = 0.0951595, Final residual = 0.00564242, No Iterations 2
GAMG:  Solving for p, Initial residual = 0.0547078, Final residual = 5.63119e-07, No Iterations 11
time step continuity errors : sum local = 6.66781e-12, global = -1.82645e-13, cumulative = 2.90173e-06
smoothSolver:  Solving for omega, Initial residual = 4.10673e-05, Final residual = 1.06314e-08, No Iterations 1
smoothSolver:  Solving for k, Initial residual = 0.000289717, Final residual = 4.40031e-08, No Iterations 1
ExecutionTime = 78.98 s  ClockTime = 78 s

Courant Number mean: 0.0174137 max: 0.499821
deltaT = 5.76766e-05
Time = 0.0296496

PIMPLE: iteration 1
smoothSolver:  Solving for Ux, Initial residual = 1.93604e-08, Final residual = 1.93604e-08, No Iterations 0
smoothSolver:  Solving for Uy, Initial residual = 1.00311e-07, Final residual = 1.00311e-07, No Iterations 0
smoothSolver:  Solving for Uz, Initial residual = 1.07266e-07, Final residual = 1.07266e-07, No Iterations 0
GAMG:  Solving for p, Initial residual = 0.999981, Final residual = 0.03959, No Iterations 1
GAMG:  Solving for p, Initial residual = 0.0545598, Final residual = 0.00526503, No Iterations 1
time step continuity errors : sum local = 5.18748e-07, global = 8.80555e-09, cumulative = 2.91053e-06
GAMG:  Solving for p, Initial residual = 0.999781, Final residual = 0.0395823, No Iterations 1
GAMG:  Solving for p, Initial residual = 0.0545545, Final residual = 6.46942e-07, No Iterations 11
time step continuity errors : sum local = 6.37413e-11, global = 6.77018e-12, cumulative = 2.91054e-06
PIMPLE: iteration 2
smoothSolver:  Solving for Ux, Initial residual = 0.0020767, Final residual = 6.06052e-07, No Iterations 1
smoothSolver:  Solving for Uy, Initial residual = 0.016187, Final residual = 9.54127e-09, No Iterations 2
smoothSolver:  Solving for Uz, Initial residual = 0.0158054, Final residual = 1.06181e-08, No Iterations 2
GAMG:  Solving for p, Initial residual = 0.761042, Final residual = 0.0303679, No Iterations 1
GAMG:  Solving for p, Initial residual = 0.323026, Final residual = 0.031288, No Iterations 1
time step continuity errors : sum local = 5.19338e-07, global = -9.2857e-09, cumulative = 2.90125e-06
GAMG:  Solving for p, Initial residual = 0.0951344, Final residual = 0.0056416, No Iterations 2
GAMG:  Solving for p, Initial residual = 0.054676, Final residual = 5.63265e-07, No Iterations 11
time step continuity errors : sum local = 6.67133e-12, global = -1.8265e-13, cumulative = 2.90125e-06
smoothSolver:  Solving for omega, Initial residual = 4.09993e-05, Final residual = 1.06108e-08, No Iterations 1
smoothSolver:  Solving for k, Initial residual = 0.000289451, Final residual = 4.39518e-08, No Iterations 1
ExecutionTime = 79.14 s  ClockTime = 78 s

Courant Number mean: 0.01742 max: 0.49982
deltaT = 5.76973e-05
Time = 0.0297073

PIMPLE: iteration 1
smoothSolver:  Solving for Ux, Initial residual = 1.93241e-08, Final residual = 1.93241e-08, No Iterations 0
smoothSolver:  Solving for Uy, Initial residual = 1.00063e-07, Final residual = 1.00063e-07, No Iterations 0
smoothSolver:  Solving for Uz, Initial residual = 1.07075e-07, Final residual = 1.07075e-07, No Iterations 0
GAMG:  Solving for p, Initial residual = 0.999981, Final residual = 0.0395936, No Iterations 1
GAMG:  Solving for p, Initial residual = 0.0545527, Final residual = 0.00526585, No Iterations 1
time step continuity errors : sum local = 5.18539e-07, global = 8.79697e-09, cumulative = 2.91005e-06
GAMG:  Solving for p, Initial residual = 0.999781, Final residual = 0.0395859, No Iterations 1
[SOLVER] failed (exit code: -15)
