[WORKFLOW] Applying settings...
[SETTINGS] Updated controlDict: solver=pimpleFoam, endTime=0.1
[SETTINGS] Updated transportProperties: nu=1.5e-05
[SETTINGS] Updated turbulenceProperties: model=kOmegaSST
[WORKFLOW] Starting solver...
[SOLVER] Decomposing for parallel run...
[DECOMPOSE] Running: decomposePar -force
/*---------------------------------------------------------------------------*\
| =========                 |                                                 |
| \\      /  F ield         | OpenFOAM: The Open Source CFD Toolbox           |
|  \\    /   O peration     | Version:  2506                                  |
|   \\  /    A nd           | Website:  www.openfoam.com                      |
|    \\/     M anipulation  |                                                 |
\*---------------------------------------------------------------------------*/
Build  : _615aae61-20250627 OPENFOAM=2506 version=2506
Arch   : "LSB;label=32;scalar=64"
Exec   : decomposePar -force
Date   : Jan 23 2026
Time   : 14:45:45
Host   : Vortex-Eclipse
PID    : 148561
I/O    : uncollated
Case   : /home/reen/openfoam/Tutorials/Rotating_Setup_Case/OpenFOAM_GUI/WindTunnelGUI/runs/Run_1_20260123_144538/windTunnelCase
nProcs : 1
trapFpe: Floating point exception trapping enabled (FOAM_SIGFPE).
fileModificationChecking : Monitoring run-time modified files using timeStampMaster (fileModificationSkew 5, maxFileModificationPolls 20)
allowSystemOperations : Allowing user-supplied system call operations

// * * * * * * * * * * * * * * * * * * * * * * * * * * * * * * * * * * * * * //
Create time



Decomposing mesh

Create mesh

Calculating distribution of cells
Decomposition method scotch [12] (region region0)

Finished decomposition in 0.13 s

Calculating original mesh data

Distributing cells to processors

Distributing faces to processors

Distributing points to processors

Constructing processor meshes

Processor 0
    Number of cells = 3988
    Number of points = 848
    Number of faces shared with processor 1 = 145
    Number of faces shared with processor 2 = 132
    Number of faces shared with processor 3 = 2
    Number of faces shared with processor 4 = 31
    Number of faces shared with processor 5 = 127
    Number of processor patches = 5
    Number of processor faces = 437
    Number of boundary faces = 179

Processor 1
    Number of cells = 3986
    Number of points = 891
    Number of faces shared with processor 0 = 145
    Number of faces shared with processor 2 = 235
    Number of faces shared with processor 3 = 15
    Number of faces shared with processor 4 = 90
    Number of faces shared with processor 5 = 50
    Number of processor patches = 5
    Number of processor faces = 535
    Number of boundary faces = 251

Processor 2
    Number of cells = 3913
    Number of points = 880
    Number of faces shared with processor 0 = 132
    Number of faces shared with processor 1 = 235
    Number of faces shared with processor 3 = 39
    Number of faces shared with processor 4 = 12
    Number of faces shared with processor 5 = 83
    Number of faces shared with processor 9 = 60
    Number of processor patches = 6
    Number of processor faces = 561
    Number of boundary faces = 201

Processor 3
    Number of cells = 3977
    Number of points = 982
    Number of faces shared with processor 0 = 2
    Number of faces shared with processor 1 = 15
    Number of faces shared with processor 2 = 39
    Number of faces shared with processor 4 = 153
    Number of faces shared with processor 5 = 141
    Number of faces shared with processor 6 = 125
    Number of faces shared with processor 7 = 4
    Number of faces shared with processor 8 = 85
    Number of processor patches = 8
    Number of processor faces = 564
    Number of boundary faces = 538

Processor 4
    Number of cells = 3991
    Number of points = 883
    Number of faces shared with processor 0 = 31
    Number of faces shared with processor 1 = 90
    Number of faces shared with processor 2 = 12
    Number of faces shared with processor 3 = 153
    Number of faces shared with processor 5 = 133
    Number of faces shared with processor 6 = 4
    Number of processor patches = 6
    Number of processor faces = 423
    Number of boundary faces = 309

Processor 5
    Number of cells = 3981
    Number of points = 996
    Number of faces shared with processor 0 = 127
    Number of faces shared with processor 1 = 50
    Number of faces shared with processor 2 = 83
    Number of faces shared with processor 3 = 141
    Number of faces shared with processor 4 = 133
    Number of faces shared with processor 6 = 17
    Number of faces shared with processor 7 = 22
    Number of faces shared with processor 8 = 4
    Number of faces shared with processor 9 = 17
    Number of faces shared with processor 10 = 106
    Number of processor patches = 10
    Number of processor faces = 700
    Number of boundary faces = 440

Processor 6
    Number of cells = 3963
    Number of points = 896
    Number of faces shared with processor 3 = 125
    Number of faces shared with processor 4 = 4
    Number of faces shared with processor 5 = 17
    Number of faces shared with processor 7 = 109
    Number of faces shared with processor 8 = 123
    Number of faces shared with processor 10 = 17
    Number of faces shared with processor 11 = 125
    Number of processor patches = 7
    Number of processor faces = 520
    Number of boundary faces = 290

Processor 7
    Number of cells = 3951
    Number of points = 846
    Number of faces shared with processor 3 = 4
    Number of faces shared with processor 5 = 22
    Number of faces shared with processor 6 = 109
    Number of faces shared with processor 8 = 158
    Number of faces shared with processor 10 = 61
    Number of faces shared with processor 11 = 109
    Number of processor patches = 6
    Number of processor faces = 463
    Number of boundary faces = 163

Processor 8
    Number of cells = 3919
    Number of points = 960
    Number of faces shared with processor 3 = 85
    Number of faces shared with processor 5 = 4
    Number of faces shared with processor 6 = 123
    Number of faces shared with processor 7 = 158
    Number of faces shared with processor 10 = 52
    Number of faces shared with processor 11 = 69
    Number of processor patches = 6
    Number of processor faces = 491
    Number of boundary faces = 553

Processor 9
    Number of cells = 3913
    Number of points = 982
    Number of faces shared with processor 2 = 60
    Number of faces shared with processor 5 = 17
    Number of faces shared with processor 10 = 144
    Number of processor patches = 3
    Number of processor faces = 221
    Number of boundary faces = 939

Processor 10
    Number of cells = 3913
    Number of points = 1041
    Number of faces shared with processor 5 = 106
    Number of faces shared with processor 6 = 17
    Number of faces shared with processor 7 = 61
    Number of faces shared with processor 8 = 52
    Number of faces shared with processor 9 = 144
    Number of faces shared with processor 11 = 151
    Number of processor patches = 6
    Number of processor faces = 531
    Number of boundary faces = 821

Processor 11
    Number of cells = 3930
    Number of points = 857
    Number of faces shared with processor 6 = 125
    Number of faces shared with processor 7 = 109
    Number of faces shared with processor 8 = 69
    Number of faces shared with processor 10 = 151
    Number of processor patches = 4
    Number of processor faces = 454
    Number of boundary faces = 214

Number of processor faces = 2950
Max number of cells = 3991 (0.984713% above average 3952.08)
Max number of processor patches = 10 (66.6667% above average 6)
Max number of faces between processors = 700 (42.3729% above average 491.667)

Time = 0

Processor 0: field transfer
Processor 1: field transfer
Processor 2: field transfer
Processor 3: field transfer
Processor 4: field transfer
Processor 5: field transfer
Processor 6: field transfer
Processor 7: field transfer
Processor 8: field transfer
Processor 9: field transfer
Processor 10: field transfer
Processor 11: field transfer

End

[DECOMPOSE] completed (exit code: 0)
[SOLVER] Running pimpleFoam...
[SOLVER] Running: mpirun -np 12 pimpleFoam -parallel
/*---------------------------------------------------------------------------*\
| =========                 |                                                 |
| \\      /  F ield         | OpenFOAM: The Open Source CFD Toolbox           |
|  \\    /   O peration     | Version:  2506                                  |
|   \\  /    A nd           | Website:  www.openfoam.com                      |
|    \\/     M anipulation  |                                                 |
\*---------------------------------------------------------------------------*/
Build  : _615aae61-20250627 OPENFOAM=2506 version=2506
Arch   : "LSB;label=32;scalar=64"
Exec   : pimpleFoam -parallel
Date   : Jan 23 2026
Time   : 14:45:46
Host   : Vortex-Eclipse
PID    : 150042
I/O    : uncollated
Case   : /home/reen/openfoam/Tutorials/Rotating_Setup_Case/OpenFOAM_GUI/WindTunnelGUI/runs/Run_1_20260123_144538/windTunnelCase
nProcs : 12
Hosts  :
(
    (Vortex-Eclipse 12)
)
Pstream initialized with:
    node communication : off [type=host] (12 ranks, 1 nodes)
    topology controls  : none
    consensus exchange : 0 (tuning: 0)
    exchange algorithm : 0
    commsType          : nonBlocking
    polling iterations : 0
trapFpe: Floating point exception trapping enabled (FOAM_SIGFPE).
fileModificationChecking : Monitoring run-time modified files using timeStampMaster (fileModificationSkew 5, maxFileModificationPolls 20)
allowSystemOperations : Allowing user-supplied system call operations

// * * * * * * * * * * * * * * * * * * * * * * * * * * * * * * * * * * * * * //
Create time

Create mesh for time = 0


PIMPLE: no residual control data found. Calculations will employ 2 corrector loops

Reading field p

Reading field U

Reading/calculating face flux field phi

Selecting incompressible transport model Newtonian
Selecting turbulence model type RAS
Selecting RAS turbulence model kOmegaSST
Selecting patchDistMethod meshWave
RAS
{
    RASModel        kOmegaSST;
    turbulence      on;
    printCoeffs     on;
    alphaK1         0.85;
    alphaK2         1;
    alphaOmega1     0.5;
    alphaOmega2     0.856;
    gamma1          0.555556;
    gamma2          0.44;
    beta1           0.075;
    beta2           0.0828;
    betaStar        0.09;
    a1              0.31;
    b1              1;
    c1              10;
    F3              false;
    decayControl    false;
    kInf            0;
    omegaInf        0;
}

No MRF models present

No finite volume options present
Courant Number mean: 1.30588e-05 max: 0.00273856
Courant Number mean: 1.30588e-05 max: 0.00273856

Starting time loop

Courant Number mean: 1.30588e-05 max: 0.00273856
deltaT = 1.2e-05
Time = 1.2e-05

PIMPLE: iteration 1
smoothSolver:  Solving for Ux, Initial residual = 1, Final residual = 2.02649e-10, No Iterations 1
smoothSolver:  Solving for Uy, Initial residual = 0, Final residual = 0, No Iterations 0
smoothSolver:  Solving for Uz, Initial residual = 0, Final residual = 0, No Iterations 0
GAMG:  Solving for p, Initial residual = 1, Final residual = 0.0525871, No Iterations 6
GAMG:  Solving for p, Initial residual = 0.152169, Final residual = 0.0063309, No Iterations 1
time step continuity errors : sum local = 4.36399e-05, global = -1.87906e-07, cumulative = -1.87906e-07
GAMG:  Solving for p, Initial residual = 0.975736, Final residual = 0.0512911, No Iterations 6
GAMG:  Solving for p, Initial residual = 0.152153, Final residual = 8.33347e-07, No Iterations 10
time step continuity errors : sum local = 5.74441e-09, global = 4.64815e-10, cumulative = -1.87442e-07
PIMPLE: iteration 2
smoothSolver:  Solving for Ux, Initial residual = 0.999982, Final residual = 7.0103e-08, No Iterations 2
smoothSolver:  Solving for Uy, Initial residual = 0.999799, Final residual = 7.12842e-08, No Iterations 2
smoothSolver:  Solving for Uz, Initial residual = 0.999799, Final residual = 7.49536e-08, No Iterations 2
GAMG:  Solving for p, Initial residual = 0.0154739, Final residual = 0.000781687, No Iterations 1
GAMG:  Solving for p, Initial residual = 0.00230318, Final residual = 0.000209121, No Iterations 1
time step continuity errors : sum local = 1.6232e-06, global = -1.445e-07, cumulative = -3.31942e-07
GAMG:  Solving for p, Initial residual = 0.000814341, Final residual = 4.88842e-05, No Iterations 2
GAMG:  Solving for p, Initial residual = 0.000632223, Final residual = 8.76266e-07, No Iterations 5
time step continuity errors : sum local = 6.86342e-09, global = -7.06487e-10, cumulative = -3.32648e-07
smoothSolver:  Solving for omega, Initial residual = 0.00104026, Final residual = 2.43044e-07, No Iterations 1
smoothSolver:  Solving for k, Initial residual = 1, Final residual = 7.72049e-08, No Iterations 2
ExecutionTime = 0.05 s  ClockTime = 0 s

Courant Number mean: 0.00363185 max: 0.176653
deltaT = 1.44e-05
Time = 2.64e-05

PIMPLE: iteration 1
smoothSolver:  Solving for Ux, Initial residual = 0.000387733, Final residual = 5.09491e-12, No Iterations 1
smoothSolver:  Solving for Uy, Initial residual = 5.97364e-05, Final residual = 7.33447e-13, No Iterations 1
smoothSolver:  Solving for Uz, Initial residual = 5.93047e-05, Final residual = 7.60966e-13, No Iterations 1
GAMG:  Solving for p, Initial residual = 0.99879, Final residual = 0.0494552, No Iterations 1
GAMG:  Solving for p, Initial residual = 0.0641152, Final residual = 0.00388377, No Iterations 2
time step continuity errors : sum local = 4.99776e-06, global = 4.76294e-07, cumulative = 1.43645e-07
GAMG:  Solving for p, Initial residual = 0.998687, Final residual = 0.0494504, No Iterations 1
GAMG:  Solving for p, Initial residual = 0.0641073, Final residual = 4.85253e-07, No Iterations 12
time step continuity errors : sum local = 6.24455e-10, global = 7.17368e-11, cumulative = 1.43717e-07
PIMPLE: iteration 2
smoothSolver:  Solving for Ux, Initial residual = 0.861377, Final residual = 3.96403e-08, No Iterations 2
smoothSolver:  Solving for Uy, Initial residual = 0.350288, Final residual = 1.58322e-08, No Iterations 2
smoothSolver:  Solving for Uz, Initial residual = 0.347603, Final residual = 1.53589e-08, No Iterations 2
GAMG:  Solving for p, Initial residual = 0.0412499, Final residual = 0.00318279, No Iterations 3
GAMG:  Solving for p, Initial residual = 0.594254, Final residual = 0.0248257, No Iterations 1
time step continuity errors : sum local = 5.61615e-05, global = 3.24206e-06, cumulative = 3.38577e-06
GAMG:  Solving for p, Initial residual = 0.151909, Final residual = 0.014024, No Iterations 1
GAMG:  Solving for p, Initial residual = 0.0788247, Final residual = 4.57388e-07, No Iterations 12
time step continuity errors : sum local = 3.18459e-10, global = 3.14716e-11, cumulative = 3.3858e-06
smoothSolver:  Solving for omega, Initial residual = 0.00112888, Final residual = 3.04285e-07, No Iterations 1
smoothSolver:  Solving for k, Initial residual = 0.366949, Final residual = 2.60857e-08, No Iterations 2
ExecutionTime = 0.1 s  ClockTime = 0 s

Courant Number mean: 0.00438595 max: 0.208262
deltaT = 1.728e-05
Time = 4.368e-05

PIMPLE: iteration 1
smoothSolver:  Solving for Ux, Initial residual = 9.49159e-06, Final residual = 1.59073e-13, No Iterations 1
smoothSolver:  Solving for Uy, Initial residual = 7.62957e-06, Final residual = 1.06407e-13, No Iterations 1
smoothSolver:  Solving for Uz, Initial residual = 7.12119e-06, Final residual = 9.38584e-14, No Iterations 1
GAMG:  Solving for p, Initial residual = 0.999863, Final residual = 0.046642, No Iterations 1
GAMG:  Solving for p, Initial residual = 0.0568736, Final residual = 0.00348618, No Iterations 2
time step continuity errors : sum local = 4.29809e-06, global = 4.03134e-07, cumulative = 3.78894e-06
GAMG:  Solving for p, Initial residual = 0.999639, Final residual = 0.0466318, No Iterations 1
GAMG:  Solving for p, Initial residual = 0.0568668, Final residual = 4.31946e-07, No Iterations 12
time step continuity errors : sum local = 5.32556e-10, global = 6.0829e-11, cumulative = 3.789e-06
PIMPLE: iteration 2
smoothSolver:  Solving for Ux, Initial residual = 0.301793, Final residual = 2.4573e-08, No Iterations 2
smoothSolver:  Solving for Uy, Initial residual = 0.165956, Final residual = 1.05135e-08, No Iterations 2
smoothSolver:  Solving for Uz, Initial residual = 0.162226, Final residual = 1.06022e-08, No Iterations 2
GAMG:  Solving for p, Initial residual = 0.482702, Final residual = 0.0217325, No Iterations 1
GAMG:  Solving for p, Initial residual = 0.122567, Final residual = 0.00672092, No Iterations 2
time step continuity errors : sum local = 5.64351e-06, global = -5.48403e-07, cumulative = 3.2406e-06
GAMG:  Solving for p, Initial residual = 0.175345, Final residual = 0.00916185, No Iterations 1
GAMG:  Solving for p, Initial residual = 0.0261759, Final residual = 5.17427e-07, No Iterations 11
time step continuity errors : sum local = 1.9009e-10, global = -1.72592e-11, cumulative = 3.24058e-06
smoothSolver:  Solving for omega, Initial residual = 0.0012902, Final residual = 4.25862e-07, No Iterations 1
smoothSolver:  Solving for k, Initial residual = 0.265365, Final residual = 2.91789e-08, No Iterations 2
ExecutionTime = 0.13 s  ClockTime = 0 s

Courant Number mean: 0.00526031 max: 0.242104
deltaT = 2.0736e-05
Time = 6.4416e-05

PIMPLE: iteration 1
smoothSolver:  Solving for Ux, Initial residual = 3.87907e-06, Final residual = 8.01058e-14, No Iterations 1
smoothSolver:  Solving for Uy, Initial residual = 2.6158e-06, Final residual = 4.82152e-14, No Iterations 1
smoothSolver:  Solving for Uz, Initial residual = 2.50719e-06, Final residual = 4.44314e-14, No Iterations 1
GAMG:  Solving for p, Initial residual = 0.999941, Final residual = 0.045074, No Iterations 1
GAMG:  Solving for p, Initial residual = 0.0544592, Final residual = 0.00325532, No Iterations 2
time step continuity errors : sum local = 4.31098e-06, global = 4.08922e-07, cumulative = 3.6495e-06
GAMG:  Solving for p, Initial residual = 0.999713, Final residual = 0.0450639, No Iterations 1
GAMG:  Solving for p, Initial residual = 0.0544527, Final residual = 9.88607e-07, No Iterations 11
time step continuity errors : sum local = 1.30923e-09, global = 9.12427e-11, cumulative = 3.64959e-06
PIMPLE: iteration 2
smoothSolver:  Solving for Ux, Initial residual = 0.225775, Final residual = 2.63809e-08, No Iterations 2
smoothSolver:  Solving for Uy, Initial residual = 0.114293, Final residual = 1.09619e-08, No Iterations 2
smoothSolver:  Solving for Uz, Initial residual = 0.111817, Final residual = 1.0339e-08, No Iterations 2
GAMG:  Solving for p, Initial residual = 0.470359, Final residual = 0.0210572, No Iterations 1
GAMG:  Solving for p, Initial residual = 0.115541, Final residual = 0.00677905, No Iterations 2
time step continuity errors : sum local = 4.78862e-06, global = -4.57108e-07, cumulative = 3.19248e-06
GAMG:  Solving for p, Initial residual = 0.183531, Final residual = 0.009474, No Iterations 1
GAMG:  Solving for p, Initial residual = 0.0267961, Final residual = 5.31182e-07, No Iterations 11
time step continuity errors : sum local = 1.60522e-10, global = -1.42298e-11, cumulative = 3.19247e-06
smoothSolver:  Solving for omega, Initial residual = 0.00148147, Final residual = 5.9979e-07, No Iterations 1
smoothSolver:  Solving for k, Initial residual = 0.192784, Final residual = 3.24797e-08, No Iterations 2
ExecutionTime = 0.16 s  ClockTime = 1 s

Courant Number mean: 0.00630948 max: 0.281498
deltaT = 2.44191e-05
Time = 8.88351e-05

PIMPLE: iteration 1
smoothSolver:  Solving for Ux, Initial residual = 2.55719e-06, Final residual = 6.39462e-14, No Iterations 1
smoothSolver:  Solving for Uy, Initial residual = 1.76939e-06, Final residual = 4.15353e-14, No Iterations 1
smoothSolver:  Solving for Uz, Initial residual = 1.72042e-06, Final residual = 3.84143e-14, No Iterations 1
GAMG:  Solving for p, Initial residual = 0.999956, Final residual = 0.0438982, No Iterations 1
GAMG:  Solving for p, Initial residual = 0.0527646, Final residual = 0.00307288, No Iterations 2
time step continuity errors : sum local = 4.39585e-06, global = 4.20243e-07, cumulative = 3.61271e-06
GAMG:  Solving for p, Initial residual = 0.999729, Final residual = 0.0438884, No Iterations 1
GAMG:  Solving for p, Initial residual = 0.0527583, Final residual = 9.35622e-07, No Iterations 11
time step continuity errors : sum local = 1.33847e-09, global = 9.27484e-11, cumulative = 3.61281e-06
PIMPLE: iteration 2
smoothSolver:  Solving for Ux, Initial residual = 0.188415, Final residual = 3.13631e-08, No Iterations 2
smoothSolver:  Solving for Uy, Initial residual = 0.0985916, Final residual = 1.35572e-08, No Iterations 2
smoothSolver:  Solving for Uz, Initial residual = 0.0961367, Final residual = 1.26715e-08, No Iterations 2
GAMG:  Solving for p, Initial residual = 0.492858, Final residual = 0.0215737, No Iterations 1
GAMG:  Solving for p, Initial residual = 0.121541, Final residual = 0.00696541, No Iterations 2
time step continuity errors : sum local = 4.72396e-06, global = -4.54188e-07, cumulative = 3.15862e-06
GAMG:  Solving for p, Initial residual = 0.193914, Final residual = 0.0100146, No Iterations 1
GAMG:  Solving for p, Initial residual = 0.0284963, Final residual = 5.63524e-07, No Iterations 11
time step continuity errors : sum local = 1.56976e-10, global = -1.39128e-11, cumulative = 3.1586e-06
smoothSolver:  Solving for omega, Initial residual = 0.00166961, Final residual = 8.13286e-07, No Iterations 1
smoothSolver:  Solving for k, Initial residual = 0.149383, Final residual = 3.72497e-08, No Iterations 2
ExecutionTime = 0.2 s  ClockTime = 1 s

Courant Number mean: 0.00742721 max: 0.321549
deltaT = 2.82163e-05
Time = 0.000117051

PIMPLE: iteration 1
smoothSolver:  Solving for Ux, Initial residual = 1.9004e-06, Final residual = 5.57319e-14, No Iterations 1
smoothSolver:  Solving for Uy, Initial residual = 1.43917e-06, Final residual = 4.0918e-14, No Iterations 1
smoothSolver:  Solving for Uz, Initial residual = 1.39883e-06, Final residual = 3.77393e-14, No Iterations 1
GAMG:  Solving for p, Initial residual = 0.999964, Final residual = 0.0430044, No Iterations 1
GAMG:  Solving for p, Initial residual = 0.0514929, Final residual = 0.00292185, No Iterations 2
time step continuity errors : sum local = 4.4886e-06, global = 4.31989e-07, cumulative = 3.59059e-06
GAMG:  Solving for p, Initial residual = 0.999739, Final residual = 0.0429949, No Iterations 1
GAMG:  Solving for p, Initial residual = 0.0514868, Final residual = 8.91568e-07, No Iterations 11
time step continuity errors : sum local = 1.36967e-09, global = 9.44754e-11, cumulative = 3.59069e-06
PIMPLE: iteration 2
smoothSolver:  Solving for Ux, Initial residual = 0.162527, Final residual = 3.70779e-08, No Iterations 2
smoothSolver:  Solving for Uy, Initial residual = 0.0887177, Final residual = 1.67657e-08, No Iterations 2
smoothSolver:  Solving for Uz, Initial residual = 0.086288, Final residual = 1.55985e-08, No Iterations 2
GAMG:  Solving for p, Initial residual = 0.514357, Final residual = 0.0220833, No Iterations 1
GAMG:  Solving for p, Initial residual = 0.127514, Final residual = 0.00713195, No Iterations 2
time step continuity errors : sum local = 4.75026e-06, global = -4.58957e-07, cumulative = 3.13173e-06
GAMG:  Solving for p, Initial residual = 0.202982, Final residual = 0.0104927, No Iterations 1
GAMG:  Solving for p, Initial residual = 0.0300336, Final residual = 5.92333e-07, No Iterations 11
time step continuity errors : sum local = 1.56628e-10, global = -1.38782e-11, cumulative = 3.13172e-06
smoothSolver:  Solving for omega, Initial residual = 0.00184358, Final residual = 1.51295e-09, No Iterations 2
smoothSolver:  Solving for k, Initial residual = 0.12091, Final residual = 4.31068e-08, No Iterations 2
ExecutionTime = 0.23 s  ClockTime = 1 s

Courant Number mean: 0.00857903 max: 0.364651
deltaT = 3.20852e-05
Time = 0.000149137

PIMPLE: iteration 1
smoothSolver:  Solving for Ux, Initial residual = 1.54507e-06, Final residual = 5.22287e-14, No Iterations 1
smoothSolver:  Solving for Uy, Initial residual = 1.27119e-06, Final residual = 4.27463e-14, No Iterations 1
smoothSolver:  Solving for Uz, Initial residual = 1.23235e-06, Final residual = 3.94103e-14, No Iterations 1
GAMG:  Solving for p, Initial residual = 0.999969, Final residual = 0.0423012, No Iterations 1
GAMG:  Solving for p, Initial residual = 0.0505153, Final residual = 0.00279364, No Iterations 2
time step continuity errors : sum local = 4.57415e-06, global = 4.42645e-07, cumulative = 3.57436e-06
GAMG:  Solving for p, Initial residual = 0.999744, Final residual = 0.0422918, No Iterations 1
GAMG:  Solving for p, Initial residual = 0.0505094, Final residual = 8.5401e-07, No Iterations 11
time step continuity errors : sum local = 1.39833e-09, global = 9.60981e-11, cumulative = 3.57446e-06
PIMPLE: iteration 2
smoothSolver:  Solving for Ux, Initial residual = 0.143373, Final residual = 4.33486e-08, No Iterations 2
smoothSolver:  Solving for Uy, Initial residual = 0.0816188, Final residual = 2.04743e-08, No Iterations 2
smoothSolver:  Solving for Uz, Initial residual = 0.0791882, Final residual = 1.89742e-08, No Iterations 2
GAMG:  Solving for p, Initial residual = 0.533586, Final residual = 0.022559, No Iterations 1
GAMG:  Solving for p, Initial residual = 0.13334, Final residual = 0.00727832, No Iterations 2
time step continuity errors : sum local = 4.79621e-06, global = -4.65551e-07, cumulative = 3.10891e-06
GAMG:  Solving for p, Initial residual = 0.210954, Final residual = 0.0109167, No Iterations 1
GAMG:  Solving for p, Initial residual = 0.0314217, Final residual = 6.18237e-07, No Iterations 11
time step continuity errors : sum local = 1.57019e-10, global = -1.39008e-11, cumulative = 3.10889e-06
smoothSolver:  Solving for omega, Initial residual = 0.00199862, Final residual = 2.2947e-09, No Iterations 2
smoothSolver:  Solving for k, Initial residual = 0.100748, Final residual = 5.00589e-08, No Iterations 2
ExecutionTime = 0.26 s  ClockTime = 1 s

Courant Number mean: 0.00975209 max: 0.407453
deltaT = 3.60225e-05
Time = 0.000185159

PIMPLE: iteration 1
smoothSolver:  Solving for Ux, Initial residual = 1.35991e-06, Final residual = 5.24776e-14, No Iterations 1
smoothSolver:  Solving for Uy, Initial residual = 1.18425e-06, Final residual = 4.61074e-14, No Iterations 1
smoothSolver:  Solving for Uz, Initial residual = 1.1446e-06, Final residual = 4.26506e-14, No Iterations 1
GAMG:  Solving for p, Initial residual = 0.999973, Final residual = 0.0417284, No Iterations 1
GAMG:  Solving for p, Initial residual = 0.0497429, Final residual = 0.00268322, No Iterations 2
time step continuity errors : sum local = 4.65066e-06, global = 4.52092e-07, cumulative = 3.56098e-06
GAMG:  Solving for p, Initial residual = 0.999748, Final residual = 0.0417191, No Iterations 1
GAMG:  Solving for p, Initial residual = 0.0497371, Final residual = 8.21505e-07, No Iterations 11
time step continuity errors : sum local = 1.42389e-09, global = 9.75582e-11, cumulative = 3.56108e-06
PIMPLE: iteration 2
smoothSolver:  Solving for Ux, Initial residual = 0.12863, Final residual = 5.0059e-08, No Iterations 2
smoothSolver:  Solving for Uy, Initial residual = 0.076204, Final residual = 2.46712e-08, No Iterations 2
smoothSolver:  Solving for Uz, Initial residual = 0.0737668, Final residual = 2.27714e-08, No Iterations 2
GAMG:  Solving for p, Initial residual = 0.550746, Final residual = 0.0229924, No Iterations 1
GAMG:  Solving for p, Initial residual = 0.139014, Final residual = 0.00741155, No Iterations 2
time step continuity errors : sum local = 4.84845e-06, global = -4.72495e-07, cumulative = 3.08859e-06
GAMG:  Solving for p, Initial residual = 0.218013, Final residual = 0.0112972, No Iterations 1
GAMG:  Solving for p, Initial residual = 0.0327014, Final residual = 6.41971e-07, No Iterations 11
time step continuity errors : sum local = 1.57662e-10, global = -1.39415e-11, cumulative = 3.08857e-06
smoothSolver:  Solving for omega, Initial residual = 0.00213371, Final residual = 3.33992e-09, No Iterations 2
smoothSolver:  Solving for k, Initial residual = 0.0857403, Final residual = 5.78512e-08, No Iterations 2
ExecutionTime = 0.29 s  ClockTime = 1 s

Courant Number mean: 0.0109453 max: 0.449121
deltaT = 4.00328e-05
Time = 0.000225192

PIMPLE: iteration 1
smoothSolver:  Solving for Ux, Initial residual = 1.27852e-06, Final residual = 5.57218e-14, No Iterations 1
smoothSolver:  Solving for Uy, Initial residual = 1.14538e-06, Final residual = 5.06004e-14, No Iterations 1
smoothSolver:  Solving for Uz, Initial residual = 1.10335e-06, Final residual = 4.68933e-14, No Iterations 1
GAMG:  Solving for p, Initial residual = 0.999975, Final residual = 0.0412582, No Iterations 1
GAMG:  Solving for p, Initial residual = 0.0491299, Final residual = 0.0025874, No Iterations 2
time step continuity errors : sum local = 4.71934e-06, global = 4.60514e-07, cumulative = 3.54909e-06
GAMG:  Solving for p, Initial residual = 0.999752, Final residual = 0.0412491, No Iterations 1
GAMG:  Solving for p, Initial residual = 0.0491242, Final residual = 7.932e-07, No Iterations 11
time step continuity errors : sum local = 1.4468e-09, global = 9.88727e-11, cumulative = 3.54919e-06
PIMPLE: iteration 2
smoothSolver:  Solving for Ux, Initial residual = 0.116967, Final residual = 5.73438e-08, No Iterations 2
smoothSolver:  Solving for Uy, Initial residual = 0.0719099, Final residual = 2.9382e-08, No Iterations 2
smoothSolver:  Solving for Uz, Initial residual = 0.0694737, Final residual = 2.70357e-08, No Iterations 2
GAMG:  Solving for p, Initial residual = 0.566173, Final residual = 0.0233923, No Iterations 1
GAMG:  Solving for p, Initial residual = 0.144516, Final residual = 0.00753281, No Iterations 2
time step continuity errors : sum local = 4.90063e-06, global = -4.79274e-07, cumulative = 3.06991e-06
GAMG:  Solving for p, Initial residual = 0.224317, Final residual = 0.0116396, No Iterations 1
GAMG:  Solving for p, Initial residual = 0.0338791, Final residual = 6.6374e-07, No Iterations 11
time step continuity errors : sum local = 1.58347e-10, global = -1.39807e-11, cumulative = 3.0699e-06
smoothSolver:  Solving for omega, Initial residual = 0.00224872, Final residual = 4.72011e-09, No Iterations 2
smoothSolver:  Solving for k, Initial residual = 0.0741133, Final residual = 6.68162e-08, No Iterations 2
ExecutionTime = 0.32 s  ClockTime = 1 s

Courant Number mean: 0.0121602 max: 0.489759
deltaT = 4.08699e-05
Time = 0.000266062

PIMPLE: iteration 1
smoothSolver:  Solving for Ux, Initial residual = 1.16886e-06, Final residual = 5.244e-14, No Iterations 1
smoothSolver:  Solving for Uy, Initial residual = 1.05423e-06, Final residual = 4.81951e-14, No Iterations 1
smoothSolver:  Solving for Uz, Initial residual = 1.01306e-06, Final residual = 4.47124e-14, No Iterations 1
GAMG:  Solving for p, Initial residual = 0.999979, Final residual = 0.0408655, No Iterations 1
GAMG:  Solving for p, Initial residual = 0.0486319, Final residual = 0.00250395, No Iterations 2
time step continuity errors : sum local = 4.42942e-06, global = 4.33527e-07, cumulative = 3.50343e-06
GAMG:  Solving for p, Initial residual = 0.999757, Final residual = 0.0408565, No Iterations 1
GAMG:  Solving for p, Initial residual = 0.0486263, Final residual = 7.68293e-07, No Iterations 11
time step continuity errors : sum local = 1.35911e-09, global = 9.276e-11, cumulative = 3.50352e-06
PIMPLE: iteration 2
smoothSolver:  Solving for Ux, Initial residual = 0.107054, Final residual = 5.40857e-08, No Iterations 2
smoothSolver:  Solving for Uy, Initial residual = 0.0677371, Final residual = 2.8555e-08, No Iterations 2
smoothSolver:  Solving for Uz, Initial residual = 0.0653115, Final residual = 2.61767e-08, No Iterations 2
GAMG:  Solving for p, Initial residual = 0.578848, Final residual = 0.0237094, No Iterations 1
GAMG:  Solving for p, Initial residual = 0.149169, Final residual = 0.00761396, No Iterations 2
time step continuity errors : sum local = 4.55544e-06, global = -4.46738e-07, cumulative = 3.05678e-06
GAMG:  Solving for p, Initial residual = 0.227794, Final residual = 0.0118539, No Iterations 1
GAMG:  Solving for p, Initial residual = 0.0346824, Final residual = 6.79553e-07, No Iterations 11
time step continuity errors : sum local = 1.46753e-10, global = -1.29682e-11, cumulative = 3.05677e-06
smoothSolver:  Solving for omega, Initial residual = 0.00217408, Final residual = 4.87053e-09, No Iterations 2
smoothSolver:  Solving for k, Initial residual = 0.0601656, Final residual = 5.84096e-08, No Iterations 2
ExecutionTime = 0.36 s  ClockTime = 1 s

Courant Number mean: 0.0124111 max: 0.491013
deltaT = 4.1618e-05
Time = 0.00030768

PIMPLE: iteration 1
smoothSolver:  Solving for Ux, Initial residual = 1.12992e-06, Final residual = 5.1331e-14, No Iterations 1
smoothSolver:  Solving for Uy, Initial residual = 1.01533e-06, Final residual = 4.72182e-14, No Iterations 1
smoothSolver:  Solving for Uz, Initial residual = 9.74367e-07, Final residual = 9.74367e-07, No Iterations 0
GAMG:  Solving for p, Initial residual = 0.999981, Final residual = 0.0405353, No Iterations 1
GAMG:  Solving for p, Initial residual = 0.0482197, Final residual = 0.00242984, No Iterations 2
time step continuity errors : sum local = 4.17323e-06, global = 4.09408e-07, cumulative = 3.46617e-06
GAMG:  Solving for p, Initial residual = 0.99976, Final residual = 0.0405265, No Iterations 1
GAMG:  Solving for p, Initial residual = 0.0482141, Final residual = 7.46016e-07, No Iterations 11
time step continuity errors : sum local = 1.2813e-09, global = 8.7369e-11, cumulative = 3.46626e-06
PIMPLE: iteration 2
smoothSolver:  Solving for Ux, Initial residual = 0.0994923, Final residual = 5.16251e-08, No Iterations 2
smoothSolver:  Solving for Uy, Initial residual = 0.0646219, Final residual = 2.79285e-08, No Iterations 2
smoothSolver:  Solving for Uz, Initial residual = 0.0622112, Final residual = 2.55514e-08, No Iterations 2
GAMG:  Solving for p, Initial residual = 0.590941, Final residual = 0.0240199, No Iterations 1
GAMG:  Solving for p, Initial residual = 0.153945, Final residual = 0.00769761, No Iterations 2
time step continuity errors : sum local = 4.2842e-06, global = -4.21175e-07, cumulative = 3.04509e-06
GAMG:  Solving for p, Initial residual = 0.231514, Final residual = 0.0120852, No Iterations 1
GAMG:  Solving for p, Initial residual = 0.0355826, Final residual = 6.97291e-07, No Iterations 11
time step continuity errors : sum local = 1.37638e-10, global = -1.21716e-11, cumulative = 3.04507e-06
smoothSolver:  Solving for omega, Initial residual = 0.00209856, Final residual = 4.99344e-09, No Iterations 2
smoothSolver:  Solving for k, Initial residual = 0.0502264, Final residual = 5.20297e-08, No Iterations 2
ExecutionTime = 0.39 s  ClockTime = 1 s

Courant Number mean: 0.012635 max: 0.491358
deltaT = 4.235e-05
Time = 0.00035003

PIMPLE: iteration 1
smoothSolver:  Solving for Ux, Initial residual = 1.10664e-06, Final residual = 5.06439e-14, No Iterations 1
smoothSolver:  Solving for Uy, Initial residual = 9.87394e-07, Final residual = 9.87394e-07, No Iterations 0
smoothSolver:  Solving for Uz, Initial residual = 9.46183e-07, Final residual = 9.46183e-07, No Iterations 0
GAMG:  Solving for p, Initial residual = 0.999982, Final residual = 0.0402517, No Iterations 1
GAMG:  Solving for p, Initial residual = 0.0478774, Final residual = 0.00236364, No Iterations 2
time step continuity errors : sum local = 3.95062e-06, global = 3.88276e-07, cumulative = 3.43335e-06
GAMG:  Solving for p, Initial residual = 0.999762, Final residual = 0.0402429, No Iterations 1
GAMG:  Solving for p, Initial residual = 0.0478719, Final residual = 7.26009e-07, No Iterations 11
time step continuity errors : sum local = 1.21348e-09, global = 8.26913e-11, cumulative = 3.43343e-06
PIMPLE: iteration 2
smoothSolver:  Solving for Ux, Initial residual = 0.0931356, Final residual = 4.97676e-08, No Iterations 2
smoothSolver:  Solving for Uy, Initial residual = 0.0619498, Final residual = 2.74029e-08, No Iterations 2
smoothSolver:  Solving for Uz, Initial residual = 0.05956, Final residual = 2.50686e-08, No Iterations 2
GAMG:  Solving for p, Initial residual = 0.601896, Final residual = 0.0243034, No Iterations 1
GAMG:  Solving for p, Initial residual = 0.158568, Final residual = 0.0077744, No Iterations 2
time step continuity errors : sum local = 4.0504e-06, global = -3.98956e-07, cumulative = 3.03448e-06
GAMG:  Solving for p, Initial residual = 0.234655, Final residual = 0.012288, No Iterations 1
GAMG:  Solving for p, Initial residual = 0.036398, Final residual = 7.13338e-07, No Iterations 11
time step continuity errors : sum local = 1.29781e-10, global = -1.14854e-11, cumulative = 3.03447e-06
smoothSolver:  Solving for omega, Initial residual = 0.00202544, Final residual = 5.10231e-09, No Iterations 2
smoothSolver:  Solving for k, Initial residual = 0.0428578, Final residual = 4.72124e-08, No Iterations 2
ExecutionTime = 0.42 s  ClockTime = 1 s

Courant Number mean: 0.0128542 max: 0.491687
deltaT = 4.3066e-05
Time = 0.000393096

PIMPLE: iteration 1
smoothSolver:  Solving for Ux, Initial residual = 1.093e-06, Final residual = 5.02696e-14, No Iterations 1
smoothSolver:  Solving for Uy, Initial residual = 9.66505e-07, Final residual = 9.66505e-07, No Iterations 0
smoothSolver:  Solving for Uz, Initial residual = 9.25024e-07, Final residual = 9.25024e-07, No Iterations 0
GAMG:  Solving for p, Initial residual = 0.999982, Final residual = 0.0400059, No Iterations 1
GAMG:  Solving for p, Initial residual = 0.0475958, Final residual = 0.00230423, No Iterations 2
time step continuity errors : sum local = 3.75521e-06, global = 3.69586e-07, cumulative = 3.40405e-06
GAMG:  Solving for p, Initial residual = 0.999764, Final residual = 0.0399972, No Iterations 1
GAMG:  Solving for p, Initial residual = 0.0475903, Final residual = 7.07966e-07, No Iterations 11
time step continuity errors : sum local = 1.15379e-09, global = 7.85913e-11, cumulative = 3.40413e-06
PIMPLE: iteration 2
smoothSolver:  Solving for Ux, Initial residual = 0.0877213, Final residual = 4.82803e-08, No Iterations 2
smoothSolver:  Solving for Uy, Initial residual = 0.0596254, Final residual = 2.69814e-08, No Iterations 2
smoothSolver:  Solving for Uz, Initial residual = 0.0572622, Final residual = 2.46965e-08, No Iterations 2
GAMG:  Solving for p, Initial residual = 0.611889, Final residual = 0.024563, No Iterations 1
GAMG:  Solving for p, Initial residual = 0.163032, Final residual = 0.00784531, No Iterations 2
time step continuity errors : sum local = 3.84581e-06, global = -3.79398e-07, cumulative = 3.02473e-06
GAMG:  Solving for p, Initial residual = 0.237287, Final residual = 0.0124652, No Iterations 1
GAMG:  Solving for p, Initial residual = 0.0371389, Final residual = 7.27885e-07, No Iterations 11
time step continuity errors : sum local = 1.2291e-10, global = -1.08851e-11, cumulative = 3.02472e-06
smoothSolver:  Solving for omega, Initial residual = 0.00195445, Final residual = 5.18488e-09, No Iterations 2
smoothSolver:  Solving for k, Initial residual = 0.037207, Final residual = 4.33716e-08, No Iterations 2
ExecutionTime = 0.45 s  ClockTime = 1 s

Courant Number mean: 0.0130687 max: 0.492
deltaT = 4.37662e-05
Time = 0.000436862

PIMPLE: iteration 1
smoothSolver:  Solving for Ux, Initial residual = 1.08537e-06, Final residual = 5.00947e-14, No Iterations 1
smoothSolver:  Solving for Uy, Initial residual = 9.50859e-07, Final residual = 9.50859e-07, No Iterations 0
smoothSolver:  Solving for Uz, Initial residual = 9.08945e-07, Final residual = 9.08945e-07, No Iterations 0
GAMG:  Solving for p, Initial residual = 0.999983, Final residual = 0.039791, No Iterations 1
GAMG:  Solving for p, Initial residual = 0.0473657, Final residual = 0.00225074, No Iterations 2
time step continuity errors : sum local = 3.58206e-06, global = 3.52924e-07, cumulative = 3.37764e-06
GAMG:  Solving for p, Initial residual = 0.999765, Final residual = 0.0397824, No Iterations 1
GAMG:  Solving for p, Initial residual = 0.0473603, Final residual = 6.91657e-07, No Iterations 11
time step continuity errors : sum local = 1.10079e-09, global = 7.49646e-11, cumulative = 3.37772e-06
PIMPLE: iteration 2
smoothSolver:  Solving for Ux, Initial residual = 0.0830632, Final residual = 4.70819e-08, No Iterations 2
smoothSolver:  Solving for Uy, Initial residual = 0.0575816, Final residual = 2.66751e-08, No Iterations 2
smoothSolver:  Solving for Uz, Initial residual = 0.055248, Final residual = 2.4422e-08, No Iterations 2
GAMG:  Solving for p, Initial residual = 0.621011, Final residual = 0.0248018, No Iterations 1
GAMG:  Solving for p, Initial residual = 0.167339, Final residual = 0.00791083, No Iterations 2
time step continuity errors : sum local = 3.6652e-06, global = -3.62035e-07, cumulative = 3.01568e-06
GAMG:  Solving for p, Initial residual = 0.239437, Final residual = 0.0126183, No Iterations 1
GAMG:  Solving for p, Initial residual = 0.037807, Final residual = 7.40961e-07, No Iterations 11
time step continuity errors : sum local = 1.16849e-10, global = -1.03558e-11, cumulative = 3.01567e-06
smoothSolver:  Solving for omega, Initial residual = 0.0018858, Final residual = 5.25705e-09, No Iterations 2
smoothSolver:  Solving for k, Initial residual = 0.0327357, Final residual = 4.0167e-08, No Iterations 2
ExecutionTime = 0.48 s  ClockTime = -2 s

Courant Number mean: 0.0132786 max: 0.4923
deltaT = 4.44508e-05
Time = 0.000481313

PIMPLE: iteration 1
smoothSolver:  Solving for Ux, Initial residual = 1.0815e-06, Final residual = 5.00288e-14, No Iterations 1
smoothSolver:  Solving for Uy, Initial residual = 9.38802e-07, Final residual = 9.38802e-07, No Iterations 0
smoothSolver:  Solving for Uz, Initial residual = 8.96706e-07, Final residual = 8.96706e-07, No Iterations 0
GAMG:  Solving for p, Initial residual = 0.999983, Final residual = 0.0396001, No Iterations 1
GAMG:  Solving for p, Initial residual = 0.0471737, Final residual = 0.00220237, No Iterations 2
time step continuity errors : sum local = 3.42747e-06, global = 3.37967e-07, cumulative = 3.35364e-06
GAMG:  Solving for p, Initial residual = 0.999766, Final residual = 0.0395916, No Iterations 1
GAMG:  Solving for p, Initial residual = 0.0471683, Final residual = 6.76865e-07, No Iterations 11
time step continuity errors : sum local = 1.0534e-09, global = 7.17325e-11, cumulative = 3.35371e-06
PIMPLE: iteration 2
smoothSolver:  Solving for Ux, Initial residual = 0.0790229, Final residual = 4.60987e-08, No Iterations 2
smoothSolver:  Solving for Uy, Initial residual = 0.0557712, Final residual = 2.64474e-08, No Iterations 2
smoothSolver:  Solving for Uz, Initial residual = 0.0534676, Final residual = 2.42464e-08, No Iterations 2
GAMG:  Solving for p, Initial residual = 0.62939, Final residual = 0.0250231, No Iterations 1
GAMG:  Solving for p, Initial residual = 0.17149, Final residual = 0.007972, No Iterations 2
time step continuity errors : sum local = 3.50437e-06, global = -3.46492e-07, cumulative = 3.00722e-06
GAMG:  Solving for p, Initial residual = 0.241214, Final residual = 0.0127522, No Iterations 1
GAMG:  Solving for p, Initial residual = 0.038419, Final residual = 7.52883e-07, No Iterations 11
time step continuity errors : sum local = 1.11458e-10, global = -9.8854e-12, cumulative = 3.00721e-06
smoothSolver:  Solving for omega, Initial residual = 0.00181939, Final residual = 5.32446e-09, No Iterations 2
smoothSolver:  Solving for k, Initial residual = 0.0291162, Final residual = 3.75301e-08, No Iterations 2
ExecutionTime = 0.52 s  ClockTime = -2 s

Courant Number mean: 0.0134838 max: 0.492565
deltaT = 4.51218e-05
Time = 0.000526435

PIMPLE: iteration 1
smoothSolver:  Solving for Ux, Initial residual = 1.08012e-06, Final residual = 5.00619e-14, No Iterations 1
smoothSolver:  Solving for Uy, Initial residual = 9.29521e-07, Final residual = 9.29521e-07, No Iterations 0
smoothSolver:  Solving for Uz, Initial residual = 8.87187e-07, Final residual = 8.87187e-07, No Iterations 0
GAMG:  Solving for p, Initial residual = 0.999983, Final residual = 0.0394332, No Iterations 1
GAMG:  Solving for p, Initial residual = 0.0470128, Final residual = 0.00215848, No Iterations 2
time step continuity errors : sum local = 3.28868e-06, global = 3.24473e-07, cumulative = 3.33168e-06
GAMG:  Solving for p, Initial residual = 0.999768, Final residual = 0.0394248, No Iterations 1
GAMG:  Solving for p, Initial residual = 0.0470075, Final residual = 6.63404e-07, No Iterations 11
time step continuity errors : sum local = 1.01078e-09, global = 6.88346e-11, cumulative = 3.33175e-06
PIMPLE: iteration 2
smoothSolver:  Solving for Ux, Initial residual = 0.075487, Final residual = 4.52994e-08, No Iterations 2
smoothSolver:  Solving for Uy, Initial residual = 0.054158, Final residual = 2.62782e-08, No Iterations 2
smoothSolver:  Solving for Uz, Initial residual = 0.0518803, Final residual = 2.41436e-08, No Iterations 2
GAMG:  Solving for p, Initial residual = 0.637102, Final residual = 0.0252271, No Iterations 1
GAMG:  Solving for p, Initial residual = 0.175479, Final residual = 0.00802871, No Iterations 2
time step continuity errors : sum local = 3.3603e-06, global = -3.32499e-07, cumulative = 2.99925e-06
GAMG:  Solving for p, Initial residual = 0.242662, Final residual = 0.0128693, No Iterations 1
GAMG:  Solving for p, Initial residual = 0.0389835, Final residual = 7.6379e-07, No Iterations 11
time step continuity errors : sum local = 1.06636e-10, global = -9.46463e-12, cumulative = 2.99924e-06
smoothSolver:  Solving for omega, Initial residual = 0.00175541, Final residual = 5.41185e-09, No Iterations 2
smoothSolver:  Solving for k, Initial residual = 0.0261305, Final residual = 3.54213e-08, No Iterations 2
ExecutionTime = 0.56 s  ClockTime = -2 s

Courant Number mean: 0.0136849 max: 0.492835
deltaT = 4.57777e-05
Time = 0.000572212

PIMPLE: iteration 1
smoothSolver:  Solving for Ux, Initial residual = 1.08012e-06, Final residual = 5.01434e-14, No Iterations 1
smoothSolver:  Solving for Uy, Initial residual = 9.22533e-07, Final residual = 9.22533e-07, No Iterations 0
smoothSolver:  Solving for Uz, Initial residual = 8.79767e-07, Final residual = 8.79767e-07, No Iterations 0
GAMG:  Solving for p, Initial residual = 0.999984, Final residual = 0.0392873, No Iterations 1
GAMG:  Solving for p, Initial residual = 0.0468758, Final residual = 0.0021185, No Iterations 2
time step continuity errors : sum local = 3.16326e-06, global = 3.12224e-07, cumulative = 3.31147e-06
GAMG:  Solving for p, Initial residual = 0.999769, Final residual = 0.0392789, No Iterations 1
GAMG:  Solving for p, Initial residual = 0.0468705, Final residual = 6.51104e-07, No Iterations 11
time step continuity errors : sum local = 9.72216e-10, global = 6.62196e-11, cumulative = 3.31153e-06
PIMPLE: iteration 2
smoothSolver:  Solving for Ux, Initial residual = 0.0723783, Final residual = 4.46417e-08, No Iterations 2
smoothSolver:  Solving for Uy, Initial residual = 0.0527103, Final residual = 2.61502e-08, No Iterations 2
smoothSolver:  Solving for Uz, Initial residual = 0.0504576, Final residual = 2.41035e-08, No Iterations 2
GAMG:  Solving for p, Initial residual = 0.644188, Final residual = 0.0254152, No Iterations 1
GAMG:  Solving for p, Initial residual = 0.179307, Final residual = 0.00808125, No Iterations 2
time step continuity errors : sum local = 3.2303e-06, global = -3.19854e-07, cumulative = 2.99168e-06
GAMG:  Solving for p, Initial residual = 0.243801, Final residual = 0.0129704, No Iterations 1
GAMG:  Solving for p, Initial residual = 0.0394961, Final residual = 7.7362e-07, No Iterations 11
time step continuity errors : sum local = 1.02295e-10, global = -9.08611e-12, cumulative = 2.99167e-06
smoothSolver:  Solving for omega, Initial residual = 0.00169364, Final residual = 5.49147e-09, No Iterations 2
smoothSolver:  Solving for k, Initial residual = 0.023627, Final residual = 3.35417e-08, No Iterations 2
ExecutionTime = 0.59 s  ClockTime = -2 s

Courant Number mean: 0.0138816 max: 0.493227
deltaT = 4.64064e-05
Time = 0.000618619

PIMPLE: iteration 1
smoothSolver:  Solving for Ux, Initial residual = 1.08093e-06, Final residual = 5.02092e-14, No Iterations 1
smoothSolver:  Solving for Uy, Initial residual = 9.16784e-07, Final residual = 9.16784e-07, No Iterations 0
smoothSolver:  Solving for Uz, Initial residual = 8.73819e-07, Final residual = 8.73819e-07, No Iterations 0
GAMG:  Solving for p, Initial residual = 0.999984, Final residual = 0.0391518, No Iterations 1
GAMG:  Solving for p, Initial residual = 0.0467595, Final residual = 0.00208206, No Iterations 2
time step continuity errors : sum local = 3.04852e-06, global = 3.00976e-07, cumulative = 3.29265e-06
GAMG:  Solving for p, Initial residual = 0.99977, Final residual = 0.0391434, No Iterations 1
GAMG:  Solving for p, Initial residual = 0.0467542, Final residual = 6.39864e-07, No Iterations 11
time step continuity errors : sum local = 9.36892e-10, global = 6.38314e-11, cumulative = 3.29271e-06
PIMPLE: iteration 2
smoothSolver:  Solving for Ux, Initial residual = 0.0696205, Final residual = 4.40542e-08, No Iterations 2
smoothSolver:  Solving for Uy, Initial residual = 0.0514034, Final residual = 2.6062e-08, No Iterations 2
smoothSolver:  Solving for Uz, Initial residual = 0.0491764, Final residual = 2.40956e-08, No Iterations 2
GAMG:  Solving for p, Initial residual = 0.650718, Final residual = 0.0255901, No Iterations 1
GAMG:  Solving for p, Initial residual = 0.182974, Final residual = 0.00812995, No Iterations 2
time step continuity errors : sum local = 3.11143e-06, global = -3.08235e-07, cumulative = 2.98448e-06
GAMG:  Solving for p, Initial residual = 0.244687, Final residual = 0.0130577, No Iterations 1
GAMG:  Solving for p, Initial residual = 0.0399622, Final residual = 7.82491e-07, No Iterations 11
time step continuity errors : sum local = 9.83368e-11, global = -8.74098e-12, cumulative = 2.98447e-06
smoothSolver:  Solving for omega, Initial residual = 0.00163315, Final residual = 5.55327e-09, No Iterations 2
smoothSolver:  Solving for k, Initial residual = 0.0214965, Final residual = 3.19138e-08, No Iterations 2
ExecutionTime = 0.63 s  ClockTime = -2 s

Courant Number mean: 0.0140702 max: 0.49366
deltaT = 4.70024e-05
Time = 0.000665621

PIMPLE: iteration 1
smoothSolver:  Solving for Ux, Initial residual = 1.08161e-06, Final residual = 5.02548e-14, No Iterations 1
smoothSolver:  Solving for Uy, Initial residual = 9.1211e-07, Final residual = 9.1211e-07, No Iterations 0
smoothSolver:  Solving for Uz, Initial residual = 8.68784e-07, Final residual = 8.68784e-07, No Iterations 0
GAMG:  Solving for p, Initial residual = 0.999984, Final residual = 0.0390273, No Iterations 1
GAMG:  Solving for p, Initial residual = 0.0466616, Final residual = 0.00204876, No Iterations 2
time step continuity errors : sum local = 2.94269e-06, global = 2.90567e-07, cumulative = 3.27503e-06
GAMG:  Solving for p, Initial residual = 0.999771, Final residual = 0.039019, No Iterations 1
GAMG:  Solving for p, Initial residual = 0.0466564, Final residual = 6.29568e-07, No Iterations 11
time step continuity errors : sum local = 9.04278e-10, global = 6.1632e-11, cumulative = 3.2751e-06
PIMPLE: iteration 2
smoothSolver:  Solving for Ux, Initial residual = 0.0671633, Final residual = 4.35479e-08, No Iterations 2
smoothSolver:  Solving for Uy, Initial residual = 0.0502194, Final residual = 2.59895e-08, No Iterations 2
smoothSolver:  Solving for Uz, Initial residual = 0.048017, Final residual = 2.41081e-08, No Iterations 2
GAMG:  Solving for p, Initial residual = 0.656744, Final residual = 0.0257527, No Iterations 1
GAMG:  Solving for p, Initial residual = 0.186476, Final residual = 0.00817512, No Iterations 2
time step continuity errors : sum local = 3.00192e-06, global = -2.97509e-07, cumulative = 2.97759e-06
GAMG:  Solving for p, Initial residual = 0.245337, Final residual = 0.0131322, No Iterations 1
GAMG:  Solving for p, Initial residual = 0.0403838, Final residual = 7.90437e-07, No Iterations 11
time step continuity errors : sum local = 9.47027e-11, global = -8.42436e-12, cumulative = 2.97758e-06
smoothSolver:  Solving for omega, Initial residual = 0.00157405, Final residual = 5.59181e-09, No Iterations 2
smoothSolver:  Solving for k, Initial residual = 0.0196596, Final residual = 3.03249e-08, No Iterations 2
ExecutionTime = 0.66 s  ClockTime = -2 s

Courant Number mean: 0.0142489 max: 0.494015
deltaT = 4.75719e-05
Time = 0.000713193

PIMPLE: iteration 1
smoothSolver:  Solving for Ux, Initial residual = 1.08208e-06, Final residual = 5.02596e-14, No Iterations 1
smoothSolver:  Solving for Uy, Initial residual = 9.08173e-07, Final residual = 9.08173e-07, No Iterations 0
smoothSolver:  Solving for Uz, Initial residual = 8.64688e-07, Final residual = 8.64688e-07, No Iterations 0
GAMG:  Solving for p, Initial residual = 0.999984, Final residual = 0.0389138, No Iterations 1
GAMG:  Solving for p, Initial residual = 0.0465801, Final residual = 0.00201823, No Iterations 2
time step continuity errors : sum local = 2.84501e-06, global = 2.80932e-07, cumulative = 3.25851e-06
GAMG:  Solving for p, Initial residual = 0.999771, Final residual = 0.0389055, No Iterations 1
GAMG:  Solving for p, Initial residual = 0.0465749, Final residual = 6.20102e-07, No Iterations 11
time step continuity errors : sum local = 8.74142e-10, global = 5.9605e-11, cumulative = 3.25857e-06
PIMPLE: iteration 2
smoothSolver:  Solving for Ux, Initial residual = 0.0649563, Final residual = 4.31196e-08, No Iterations 2
smoothSolver:  Solving for Uy, Initial residual = 0.0491452, Final residual = 2.59436e-08, No Iterations 2
smoothSolver:  Solving for Uz, Initial residual = 0.046966, Final residual = 2.41559e-08, No Iterations 2
GAMG:  Solving for p, Initial residual = 0.662351, Final residual = 0.0259035, No Iterations 1
GAMG:  Solving for p, Initial residual = 0.189826, Final residual = 0.00821683, No Iterations 2
time step continuity errors : sum local = 2.90092e-06, global = -2.87593e-07, cumulative = 2.97098e-06
GAMG:  Solving for p, Initial residual = 0.245784, Final residual = 0.0131953, No Iterations 1
GAMG:  Solving for p, Initial residual = 0.0407698, Final residual = 7.97614e-07, No Iterations 11
time step continuity errors : sum local = 9.13624e-11, global = -8.13331e-12, cumulative = 2.97097e-06
smoothSolver:  Solving for omega, Initial residual = 0.00151685, Final residual = 5.61656e-09, No Iterations 2
smoothSolver:  Solving for k, Initial residual = 0.0180677, Final residual = 2.89387e-08, No Iterations 2
ExecutionTime = 0.69 s  ClockTime = -1 s

Courant Number mean: 0.0144196 max: 0.494378
deltaT = 4.81128e-05
Time = 0.000761306

PIMPLE: iteration 1
smoothSolver:  Solving for Ux, Initial residual = 1.08227e-06, Final residual = 5.02399e-14, No Iterations 1
smoothSolver:  Solving for Uy, Initial residual = 9.0487e-07, Final residual = 9.0487e-07, No Iterations 0
smoothSolver:  Solving for Uz, Initial residual = 8.61164e-07, Final residual = 8.61164e-07, No Iterations 0
GAMG:  Solving for p, Initial residual = 0.999985, Final residual = 0.0388119, No Iterations 1
GAMG:  Solving for p, Initial residual = 0.0465156, Final residual = 0.00461696, No Iterations 1
time step continuity errors : sum local = 6.38944e-06, global = 3.43235e-07, cumulative = 3.3142e-06
GAMG:  Solving for p, Initial residual = 0.999778, Final residual = 0.038804, No Iterations 1
GAMG:  Solving for p, Initial residual = 0.0465107, Final residual = 6.1142e-07, No Iterations 11
time step continuity errors : sum local = 8.46153e-10, global = 5.77269e-11, cumulative = 3.31426e-06
PIMPLE: iteration 2
smoothSolver:  Solving for Ux, Initial residual = 0.0629718, Final residual = 4.27358e-08, No Iterations 2
smoothSolver:  Solving for Uy, Initial residual = 0.0481681, Final residual = 2.59018e-08, No Iterations 2
smoothSolver:  Solving for Uz, Initial residual = 0.0460095, Final residual = 2.42124e-08, No Iterations 2
GAMG:  Solving for p, Initial residual = 0.667534, Final residual = 0.0260412, No Iterations 1
GAMG:  Solving for p, Initial residual = 0.193033, Final residual = 0.0192193, No Iterations 1
time step continuity errors : sum local = 6.53577e-06, global = -3.4353e-07, cumulative = 2.97073e-06
GAMG:  Solving for p, Initial residual = 0.116813, Final residual = 0.00623125, No Iterations 2
GAMG:  Solving for p, Initial residual = 0.152772, Final residual = 9.87751e-07, No Iterations 11
time step continuity errors : sum local = 9.75056e-11, global = -1.04306e-11, cumulative = 2.97072e-06
smoothSolver:  Solving for omega, Initial residual = 0.0014614, Final residual = 5.62713e-09, No Iterations 2
smoothSolver:  Solving for k, Initial residual = 0.0166707, Final residual = 2.7662e-08, No Iterations 2
ExecutionTime = 0.72 s  ClockTime = -1 s

Courant Number mean: 0.0145819 max: 0.496675
deltaT = 4.8435e-05
Time = 0.000809741

PIMPLE: iteration 1
smoothSolver:  Solving for Ux, Initial residual = 1.08172e-06, Final residual = 4.99477e-14, No Iterations 1
smoothSolver:  Solving for Uy, Initial residual = 8.98123e-07, Final residual = 8.98123e-07, No Iterations 0
smoothSolver:  Solving for Uz, Initial residual = 8.5525e-07, Final residual = 8.5525e-07, No Iterations 0
GAMG:  Solving for p, Initial residual = 0.999984, Final residual = 0.0387061, No Iterations 1
GAMG:  Solving for p, Initial residual = 0.0464471, Final residual = 0.00454961, No Iterations 1
time step continuity errors : sum local = 6.1547e-06, global = 3.31997e-07, cumulative = 3.30272e-06
GAMG:  Solving for p, Initial residual = 0.999778, Final residual = 0.0386983, No Iterations 1
GAMG:  Solving for p, Initial residual = 0.0464422, Final residual = 6.01488e-07, No Iterations 11
time step continuity errors : sum local = 8.13698e-10, global = 5.55982e-11, cumulative = 3.30277e-06
PIMPLE: iteration 2
smoothSolver:  Solving for Ux, Initial residual = 0.0610535, Final residual = 4.17836e-08, No Iterations 2
smoothSolver:  Solving for Uy, Initial residual = 0.0472462, Final residual = 2.55942e-08, No Iterations 2
smoothSolver:  Solving for Uz, Initial residual = 0.0451066, Final residual = 2.40023e-08, No Iterations 2
GAMG:  Solving for p, Initial residual = 0.67348, Final residual = 0.0261971, No Iterations 1
GAMG:  Solving for p, Initial residual = 0.196937, Final residual = 0.0193282, No Iterations 1
time step continuity errors : sum local = 6.29243e-06, global = -3.3213e-07, cumulative = 2.97064e-06
GAMG:  Solving for p, Initial residual = 0.11628, Final residual = 0.00624336, No Iterations 2
GAMG:  Solving for p, Initial residual = 0.150263, Final residual = 9.69468e-07, No Iterations 11
time step continuity errors : sum local = 9.37567e-11, global = -1.00262e-11, cumulative = 2.97063e-06
smoothSolver:  Solving for omega, Initial residual = 0.00140259, Final residual = 5.54225e-09, No Iterations 2
smoothSolver:  Solving for k, Initial residual = 0.0153775, Final residual = 2.60982e-08, No Iterations 2
ExecutionTime = 0.75 s  ClockTime = -1 s

Courant Number mean: 0.014678 max: 0.498516
deltaT = 4.85792e-05
Time = 0.00085832

PIMPLE: iteration 1
smoothSolver:  Solving for Ux, Initial residual = 1.07369e-06, Final residual = 4.9188e-14, No Iterations 1
smoothSolver:  Solving for Uy, Initial residual = 8.89359e-07, Final residual = 8.89359e-07, No Iterations 0
smoothSolver:  Solving for Uz, Initial residual = 8.46578e-07, Final residual = 8.46578e-07, No Iterations 0
GAMG:  Solving for p, Initial residual = 0.999985, Final residual = 0.038611, No Iterations 1
GAMG:  Solving for p, Initial residual = 0.0463945, Final residual = 0.00448788, No Iterations 1
time step continuity errors : sum local = 5.91899e-06, global = 3.20663e-07, cumulative = 3.2913e-06
GAMG:  Solving for p, Initial residual = 0.999779, Final residual = 0.0386032, No Iterations 1
GAMG:  Solving for p, Initial residual = 0.0463896, Final residual = 5.92255e-07, No Iterations 11
time step continuity errors : sum local = 7.81122e-10, global = 5.34642e-11, cumulative = 3.29135e-06
PIMPLE: iteration 2
smoothSolver:  Solving for Ux, Initial residual = 0.0592624, Final residual = 4.06732e-08, No Iterations 2
smoothSolver:  Solving for Uy, Initial residual = 0.0463558, Final residual = 2.51077e-08, No Iterations 2
smoothSolver:  Solving for Uz, Initial residual = 0.0442318, Final residual = 2.36429e-08, No Iterations 2
GAMG:  Solving for p, Initial residual = 0.678529, Final residual = 0.0263308, No Iterations 1
GAMG:  Solving for p, Initial residual = 0.200344, Final residual = 0.0194313, No Iterations 1
time step continuity errors : sum local = 6.04829e-06, global = -3.20262e-07, cumulative = 2.97109e-06
GAMG:  Solving for p, Initial residual = 0.115906, Final residual = 0.00625433, No Iterations 2
GAMG:  Solving for p, Initial residual = 0.147788, Final residual = 9.51688e-07, No Iterations 11
time step continuity errors : sum local = 8.9968e-11, global = -9.61858e-12, cumulative = 2.97108e-06
smoothSolver:  Solving for omega, Initial residual = 0.00134256, Final residual = 5.39294e-09, No Iterations 2
smoothSolver:  Solving for k, Initial residual = 0.0141914, Final residual = 2.43868e-08, No Iterations 2
ExecutionTime = 0.79 s  ClockTime = -1 s

Courant Number mean: 0.0147202 max: 0.498496
deltaT = 4.87257e-05
Time = 0.000907046

PIMPLE: iteration 1
smoothSolver:  Solving for Ux, Initial residual = 1.06618e-06, Final residual = 4.84656e-14, No Iterations 1
smoothSolver:  Solving for Uy, Initial residual = 8.81604e-07, Final residual = 8.81604e-07, No Iterations 0
smoothSolver:  Solving for Uz, Initial residual = 8.38819e-07, Final residual = 8.38819e-07, No Iterations 0
GAMG:  Solving for p, Initial residual = 0.999985, Final residual = 0.0385273, No Iterations 1
GAMG:  Solving for p, Initial residual = 0.0463541, Final residual = 0.00443128, No Iterations 1
time step continuity errors : sum local = 5.7039e-06, global = 3.10384e-07, cumulative = 3.28146e-06
GAMG:  Solving for p, Initial residual = 0.999779, Final residual = 0.0385196, No Iterations 1
GAMG:  Solving for p, Initial residual = 0.0463492, Final residual = 5.83635e-07, No Iterations 11
time step continuity errors : sum local = 7.51253e-10, global = 5.15159e-11, cumulative = 3.28151e-06
PIMPLE: iteration 2
smoothSolver:  Solving for Ux, Initial residual = 0.0576439, Final residual = 3.97038e-08, No Iterations 2
smoothSolver:  Solving for Uy, Initial residual = 0.0455494, Final residual = 2.46847e-08, No Iterations 2
smoothSolver:  Solving for Uz, Initial residual = 0.0434388, Final residual = 2.33753e-08, No Iterations 2
GAMG:  Solving for p, Initial residual = 0.683258, Final residual = 0.0264573, No Iterations 1
GAMG:  Solving for p, Initial residual = 0.203639, Final residual = 0.0195318, No Iterations 1
time step continuity errors : sum local = 5.82608e-06, global = -3.09531e-07, cumulative = 2.97198e-06
GAMG:  Solving for p, Initial residual = 0.115514, Final residual = 0.0062631, No Iterations 2
GAMG:  Solving for p, Initial residual = 0.145341, Final residual = 9.3417e-07, No Iterations 11
time step continuity errors : sum local = 8.65129e-11, global = -9.24699e-12, cumulative = 2.97197e-06
smoothSolver:  Solving for omega, Initial residual = 0.00128635, Final residual = 5.25336e-09, No Iterations 2
smoothSolver:  Solving for k, Initial residual = 0.0131463, Final residual = 2.29155e-08, No Iterations 2
ExecutionTime = 0.82 s  ClockTime = -1 s

Courant Number mean: 0.0147632 max: 0.498488
deltaT = 4.88736e-05
Time = 0.000955919

PIMPLE: iteration 1
smoothSolver:  Solving for Ux, Initial residual = 1.05888e-06, Final residual = 4.77805e-14, No Iterations 1
smoothSolver:  Solving for Uy, Initial residual = 8.74418e-07, Final residual = 8.74418e-07, No Iterations 0
smoothSolver:  Solving for Uz, Initial residual = 8.3165e-07, Final residual = 8.3165e-07, No Iterations 0
GAMG:  Solving for p, Initial residual = 0.999985, Final residual = 0.0384506, No Iterations 1
GAMG:  Solving for p, Initial residual = 0.0463208, Final residual = 0.00437922, No Iterations 1
time step continuity errors : sum local = 5.50675e-06, global = 3.0101e-07, cumulative = 3.27298e-06
GAMG:  Solving for p, Initial residual = 0.99978, Final residual = 0.0384428, No Iterations 1
GAMG:  Solving for p, Initial residual = 0.046316, Final residual = 5.75568e-07, No Iterations 11
time step continuity errors : sum local = 7.23766e-10, global = 4.97299e-11, cumulative = 3.27303e-06
PIMPLE: iteration 2
smoothSolver:  Solving for Ux, Initial residual = 0.0561664, Final residual = 3.88232e-08, No Iterations 2
smoothSolver:  Solving for Uy, Initial residual = 0.0448102, Final residual = 2.42967e-08, No Iterations 2
smoothSolver:  Solving for Uz, Initial residual = 0.0427109, Final residual = 2.31462e-08, No Iterations 2
GAMG:  Solving for p, Initial residual = 0.687672, Final residual = 0.0265757, No Iterations 1
GAMG:  Solving for p, Initial residual = 0.206833, Final residual = 0.0196295, No Iterations 1
time step continuity errors : sum local = 5.62248e-06, global = -2.9982e-07, cumulative = 2.97321e-06
GAMG:  Solving for p, Initial residual = 0.115116, Final residual = 0.00626988, No Iterations 2
GAMG:  Solving for p, Initial residual = 0.143036, Final residual = 9.17668e-07, No Iterations 11
time step continuity errors : sum local = 8.33418e-11, global = -8.90616e-12, cumulative = 2.9732e-06
smoothSolver:  Solving for omega, Initial residual = 0.0012338, Final residual = 5.11935e-09, No Iterations 2
smoothSolver:  Solving for k, Initial residual = 0.0122204, Final residual = 2.16553e-08, No Iterations 2
ExecutionTime = 0.85 s  ClockTime = -1 s

Courant Number mean: 0.0148067 max: 0.498505
deltaT = 4.90202e-05
Time = 0.00100494

PIMPLE: iteration 1
smoothSolver:  Solving for Ux, Initial residual = 1.05169e-06, Final residual = 4.713e-14, No Iterations 1
smoothSolver:  Solving for Uy, Initial residual = 8.67677e-07, Final residual = 8.67677e-07, No Iterations 0
smoothSolver:  Solving for Uz, Initial residual = 8.24968e-07, Final residual = 8.24968e-07, No Iterations 0
GAMG:  Solving for p, Initial residual = 0.999985, Final residual = 0.0383813, No Iterations 1
GAMG:  Solving for p, Initial residual = 0.0462975, Final residual = 0.00433142, No Iterations 1
time step continuity errors : sum local = 5.32531e-06, global = 2.92463e-07, cumulative = 3.26567e-06
GAMG:  Solving for p, Initial residual = 0.99978, Final residual = 0.0383736, No Iterations 1
GAMG:  Solving for p, Initial residual = 0.0462927, Final residual = 5.68016e-07, No Iterations 11
time step continuity errors : sum local = 6.98358e-10, global = 4.8088e-11, cumulative = 3.26571e-06
PIMPLE: iteration 2
smoothSolver:  Solving for Ux, Initial residual = 0.0548096, Final residual = 3.80638e-08, No Iterations 2
smoothSolver:  Solving for Uy, Initial residual = 0.0441344, Final residual = 2.39699e-08, No Iterations 2
smoothSolver:  Solving for Uz, Initial residual = 0.0420405, Final residual = 2.29683e-08, No Iterations 2
GAMG:  Solving for p, Initial residual = 0.691756, Final residual = 0.0266867, No Iterations 1
GAMG:  Solving for p, Initial residual = 0.209917, Final residual = 0.0197241, No Iterations 1
time step continuity errors : sum local = 5.43493e-06, global = -2.90902e-07, cumulative = 2.97481e-06
GAMG:  Solving for p, Initial residual = 0.114698, Final residual = 0.00627431, No Iterations 2
GAMG:  Solving for p, Initial residual = 0.140861, Final residual = 9.021e-07, No Iterations 11
time step continuity errors : sum local = 8.04153e-11, global = -8.59175e-12, cumulative = 2.9748e-06
smoothSolver:  Solving for omega, Initial residual = 0.00118442, Final residual = 4.9913e-09, No Iterations 2
smoothSolver:  Solving for k, Initial residual = 0.0113936, Final residual = 2.05283e-08, No Iterations 2
ExecutionTime = 0.88 s  ClockTime = -1 s

Courant Number mean: 0.0148499 max: 0.498566
deltaT = 4.91611e-05
Time = 0.0010541

PIMPLE: iteration 1
smoothSolver:  Solving for Ux, Initial residual = 1.04441e-06, Final residual = 4.64682e-14, No Iterations 1
smoothSolver:  Solving for Uy, Initial residual = 8.61267e-07, Final residual = 8.61267e-07, No Iterations 0
smoothSolver:  Solving for Uz, Initial residual = 8.18605e-07, Final residual = 8.18605e-07, No Iterations 0
GAMG:  Solving for p, Initial residual = 0.999985, Final residual = 0.0383146, No Iterations 1
GAMG:  Solving for p, Initial residual = 0.0462962, Final residual = 0.00429429, No Iterations 1
time step continuity errors : sum local = 5.16374e-06, global = 2.85286e-07, cumulative = 3.26009e-06
GAMG:  Solving for p, Initial residual = 0.999781, Final residual = 0.0383069, No Iterations 1
GAMG:  Solving for p, Initial residual = 0.0462913, Final residual = 5.61905e-07, No Iterations 11
time step continuity errors : sum local = 6.75676e-10, global = 4.65917e-11, cumulative = 3.26013e-06
PIMPLE: iteration 2
smoothSolver:  Solving for Ux, Initial residual = 0.0535604, Final residual = 3.7381e-08, No Iterations 2
smoothSolver:  Solving for Uy, Initial residual = 0.0435145, Final residual = 2.36753e-08, No Iterations 2
smoothSolver:  Solving for Uz, Initial residual = 0.0414246, Final residual = 2.28073e-08, No Iterations 2
GAMG:  Solving for p, Initial residual = 0.695592, Final residual = 0.0267927, No Iterations 1
GAMG:  Solving for p, Initial residual = 0.212914, Final residual = 0.0198192, No Iterations 1
time step continuity errors : sum local = 5.26213e-06, global = -2.82699e-07, cumulative = 2.97744e-06
GAMG:  Solving for p, Initial residual = 0.114278, Final residual = 0.00627714, No Iterations 2
GAMG:  Solving for p, Initial residual = 0.138849, Final residual = 8.87664e-07, No Iterations 11
time step continuity errors : sum local = 7.77052e-11, global = -8.30058e-12, cumulative = 2.97743e-06
smoothSolver:  Solving for omega, Initial residual = 0.00113794, Final residual = 4.86135e-09, No Iterations 2
smoothSolver:  Solving for k, Initial residual = 0.0106503, Final residual = 1.9478e-08, No Iterations 2
ExecutionTime = 0.92 s  ClockTime = -1 s

Courant Number mean: 0.0148914 max: 0.498591
deltaT = 4.93001e-05
Time = 0.0011034

PIMPLE: iteration 1
smoothSolver:  Solving for Ux, Initial residual = 1.03713e-06, Final residual = 4.58397e-14, No Iterations 1
smoothSolver:  Solving for Uy, Initial residual = 8.5521e-07, Final residual = 8.5521e-07, No Iterations 0
smoothSolver:  Solving for Uz, Initial residual = 8.12555e-07, Final residual = 8.12555e-07, No Iterations 0
GAMG:  Solving for p, Initial residual = 0.999985, Final residual = 0.0382596, No Iterations 1
GAMG:  Solving for p, Initial residual = 0.0462909, Final residual = 0.00425472, No Iterations 1
time step continuity errors : sum local = 5.00883e-06, global = 2.78076e-07, cumulative = 3.2555e-06
GAMG:  Solving for p, Initial residual = 0.999781, Final residual = 0.0382519, No Iterations 1
GAMG:  Solving for p, Initial residual = 0.046286, Final residual = 5.55257e-07, No Iterations 11
time step continuity errors : sum local = 6.53674e-10, global = 4.51881e-11, cumulative = 3.25555e-06
PIMPLE: iteration 2
smoothSolver:  Solving for Ux, Initial residual = 0.0524059, Final residual = 3.67616e-08, No Iterations 2
smoothSolver:  Solving for Uy, Initial residual = 0.0429417, Final residual = 2.34179e-08, No Iterations 2
smoothSolver:  Solving for Uz, Initial residual = 0.0408558, Final residual = 2.26883e-08, No Iterations 2
GAMG:  Solving for p, Initial residual = 0.699198, Final residual = 0.0268926, No Iterations 1
GAMG:  Solving for p, Initial residual = 0.215805, Final residual = 0.0199131, No Iterations 1
time step continuity errors : sum local = 5.10251e-06, global = -2.75203e-07, cumulative = 2.98035e-06
GAMG:  Solving for p, Initial residual = 0.113854, Final residual = 0.00627807, No Iterations 2
GAMG:  Solving for p, Initial residual = 0.136965, Final residual = 8.74147e-07, No Iterations 11
time step continuity errors : sum local = 7.51904e-11, global = -8.03076e-12, cumulative = 2.98034e-06
smoothSolver:  Solving for omega, Initial residual = 0.00109421, Final residual = 4.73234e-09, No Iterations 2
smoothSolver:  Solving for k, Initial residual = 0.00998109, Final residual = 1.85156e-08, No Iterations 2
ExecutionTime = 0.95 s  ClockTime = -1 s

Courant Number mean: 0.0149323 max: 0.498624
deltaT = 4.94362e-05
Time = 0.00115284

PIMPLE: iteration 1
smoothSolver:  Solving for Ux, Initial residual = 1.02982e-06, Final residual = 4.52587e-14, No Iterations 1
smoothSolver:  Solving for Uy, Initial residual = 8.49404e-07, Final residual = 8.49404e-07, No Iterations 0
smoothSolver:  Solving for Uz, Initial residual = 8.06813e-07, Final residual = 8.06813e-07, No Iterations 0
GAMG:  Solving for p, Initial residual = 0.999985, Final residual = 0.0382083, No Iterations 1
GAMG:  Solving for p, Initial residual = 0.046293, Final residual = 0.00421839, No Iterations 1
time step continuity errors : sum local = 4.86505e-06, global = 2.71453e-07, cumulative = 3.25179e-06
GAMG:  Solving for p, Initial residual = 0.999781, Final residual = 0.0382006, No Iterations 1
GAMG:  Solving for p, Initial residual = 0.0462882, Final residual = 5.48994e-07, No Iterations 11
time step continuity errors : sum local = 6.33156e-10, global = 4.38868e-11, cumulative = 3.25184e-06
PIMPLE: iteration 2
smoothSolver:  Solving for Ux, Initial residual = 0.0513404, Final residual = 3.6189e-08, No Iterations 2
smoothSolver:  Solving for Uy, Initial residual = 0.0424151, Final residual = 2.31979e-08, No Iterations 2
smoothSolver:  Solving for Uz, Initial residual = 0.0403288, Final residual = 2.25998e-08, No Iterations 2
GAMG:  Solving for p, Initial residual = 0.702574, Final residual = 0.0269843, No Iterations 1
GAMG:  Solving for p, Initial residual = 0.218179, Final residual = 0.0199899, No Iterations 1
time step continuity errors : sum local = 4.96021e-06, global = -2.68959e-07, cumulative = 2.98288e-06
GAMG:  Solving for p, Initial residual = 0.113603, Final residual = 0.00627788, No Iterations 2
GAMG:  Solving for p, Initial residual = 0.135298, Final residual = 8.62668e-07, No Iterations 11
time step continuity errors : sum local = 7.29438e-11, global = -7.79472e-12, cumulative = 2.98287e-06
smoothSolver:  Solving for omega, Initial residual = 0.00105293, Final residual = 4.60033e-09, No Iterations 2
smoothSolver:  Solving for k, Initial residual = 0.00937407, Final residual = 1.76566e-08, No Iterations 2
ExecutionTime = 0.98 s  ClockTime = -1 s

Courant Number mean: 0.0149725 max: 0.498664
deltaT = 4.95686e-05
Time = 0.00120241

PIMPLE: iteration 1
smoothSolver:  Solving for Ux, Initial residual = 1.02249e-06, Final residual = 4.4692e-14, No Iterations 1
smoothSolver:  Solving for Uy, Initial residual = 8.43851e-07, Final residual = 8.43851e-07, No Iterations 0
smoothSolver:  Solving for Uz, Initial residual = 8.01278e-07, Final residual = 8.01278e-07, No Iterations 0
GAMG:  Solving for p, Initial residual = 0.999986, Final residual = 0.0381616, No Iterations 1
GAMG:  Solving for p, Initial residual = 0.0463019, Final residual = 0.00418531, No Iterations 1
time step continuity errors : sum local = 4.73142e-06, global = 2.65348e-07, cumulative = 3.24822e-06
GAMG:  Solving for p, Initial residual = 0.999782, Final residual = 0.038154, No Iterations 1
GAMG:  Solving for p, Initial residual = 0.046297, Final residual = 5.43097e-07, No Iterations 11
time step continuity errors : sum local = 6.13967e-10, global = 4.26766e-11, cumulative = 3.24826e-06
PIMPLE: iteration 2
smoothSolver:  Solving for Ux, Initial residual = 0.0503556, Final residual = 3.56683e-08, No Iterations 2
smoothSolver:  Solving for Uy, Initial residual = 0.0419289, Final residual = 2.30073e-08, No Iterations 2
smoothSolver:  Solving for Uz, Initial residual = 0.039841, Final residual = 2.25312e-08, No Iterations 2
GAMG:  Solving for p, Initial residual = 0.705753, Final residual = 0.027075, No Iterations 1
GAMG:  Solving for p, Initial residual = 0.220872, Final residual = 0.0200781, No Iterations 1
time step continuity errors : sum local = 4.82185e-06, global = -2.62552e-07, cumulative = 2.98571e-06
GAMG:  Solving for p, Initial residual = 0.113176, Final residual = 0.00627548, No Iterations 2
GAMG:  Solving for p, Initial residual = 0.13363, Final residual = 8.50664e-07, No Iterations 11
time step continuity errors : sum local = 7.07577e-11, global = -7.56028e-12, cumulative = 2.9857e-06
smoothSolver:  Solving for omega, Initial residual = 0.00101393, Final residual = 4.47411e-09, No Iterations 2
smoothSolver:  Solving for k, Initial residual = 0.00882223, Final residual = 1.68652e-08, No Iterations 2
ExecutionTime = 1.02 s  ClockTime = -1 s

Courant Number mean: 0.0150116 max: 0.498704
deltaT = 4.96974e-05
Time = 0.0012521

PIMPLE: iteration 1
smoothSolver:  Solving for Ux, Initial residual = 1.01511e-06, Final residual = 4.41328e-14, No Iterations 1
smoothSolver:  Solving for Uy, Initial residual = 8.38526e-07, Final residual = 8.38526e-07, No Iterations 0
smoothSolver:  Solving for Uz, Initial residual = 7.9591e-07, Final residual = 7.9591e-07, No Iterations 0
GAMG:  Solving for p, Initial residual = 0.999986, Final residual = 0.0381192, No Iterations 1
GAMG:  Solving for p, Initial residual = 0.0463165, Final residual = 0.00415496, No Iterations 1
time step continuity errors : sum local = 4.6067e-06, global = 2.59709e-07, cumulative = 3.24541e-06
GAMG:  Solving for p, Initial residual = 0.999782, Final residual = 0.0381116, No Iterations 1
GAMG:  Solving for p, Initial residual = 0.0463117, Final residual = 5.37531e-07, No Iterations 11
time step continuity errors : sum local = 5.95977e-10, global = 4.15487e-11, cumulative = 3.24545e-06
PIMPLE: iteration 2
smoothSolver:  Solving for Ux, Initial residual = 0.0494448, Final residual = 3.51907e-08, No Iterations 2
smoothSolver:  Solving for Uy, Initial residual = 0.0414809, Final residual = 2.28382e-08, No Iterations 2
smoothSolver:  Solving for Uz, Initial residual = 0.0393895, Final residual = 2.24817e-08, No Iterations 2
GAMG:  Solving for p, Initial residual = 0.708745, Final residual = 0.0271616, No Iterations 1
GAMG:  Solving for p, Initial residual = 0.22348, Final residual = 0.0201662, No Iterations 1
time step continuity errors : sum local = 4.69312e-06, global = -2.56662e-07, cumulative = 2.98879e-06
GAMG:  Solving for p, Initial residual = 0.112765, Final residual = 0.00627233, No Iterations 2
GAMG:  Solving for p, Initial residual = 0.132092, Final residual = 8.39555e-07, No Iterations 11
time step continuity errors : sum local = 6.87143e-11, global = -7.34124e-12, cumulative = 2.98878e-06
smoothSolver:  Solving for omega, Initial residual = 0.000977041, Final residual = 4.34929e-09, No Iterations 2
smoothSolver:  Solving for k, Initial residual = 0.0083188, Final residual = 1.61289e-08, No Iterations 2
ExecutionTime = 1.04 s  ClockTime = -1 s

Courant Number mean: 0.0150496 max: 0.498743
deltaT = 4.98227e-05
Time = 0.00130193

PIMPLE: iteration 1
smoothSolver:  Solving for Ux, Initial residual = 1.00771e-06, Final residual = 4.35787e-14, No Iterations 1
smoothSolver:  Solving for Uy, Initial residual = 8.3339e-07, Final residual = 8.3339e-07, No Iterations 0
smoothSolver:  Solving for Uz, Initial residual = 7.90709e-07, Final residual = 7.90709e-07, No Iterations 0
GAMG:  Solving for p, Initial residual = 0.999986, Final residual = 0.038079, No Iterations 1
GAMG:  Solving for p, Initial residual = 0.0463369, Final residual = 0.00412692, No Iterations 1
time step continuity errors : sum local = 4.48987e-06, global = 2.54514e-07, cumulative = 3.24329e-06
[...]
smoothSolver:  Solving for omega, Initial residual = 1.90529e-05, Final residual = 1.80233e-08, No Iterations 1
smoothSolver:  Solving for k, Initial residual = 0.000166315, Final residual = 1.61856e-07, No Iterations 1
ExecutionTime = 53.36 s  ClockTime = 53 s

Courant Number mean: 0.0201101 max: 0.499974
deltaT = 6.67425e-05
Time = 0.0996622

PIMPLE: iteration 1
smoothSolver:  Solving for Ux, Initial residual = 8.60993e-09, Final residual = 8.60993e-09, No Iterations 0
smoothSolver:  Solving for Uy, Initial residual = 3.09002e-08, Final residual = 3.09002e-08, No Iterations 0
smoothSolver:  Solving for Uz, Initial residual = 2.30605e-08, Final residual = 2.30605e-08, No Iterations 0
GAMG:  Solving for p, Initial residual = 0.999979, Final residual = 0.0442119, No Iterations 1
GAMG:  Solving for p, Initial residual = 0.0539715, Final residual = 0.00197471, No Iterations 2
time step continuity errors : sum local = 2.13106e-07, global = -9.8844e-09, cumulative = 3.40536e-06
GAMG:  Solving for p, Initial residual = 0.999777, Final residual = 0.044203, No Iterations 1
GAMG:  Solving for p, Initial residual = 0.053966, Final residual = 6.54022e-07, No Iterations 11
time step continuity errors : sum local = 7.05808e-11, global = -6.01175e-12, cumulative = 3.40536e-06
PIMPLE: iteration 2
smoothSolver:  Solving for Ux, Initial residual = 0.00161001, Final residual = 7.67095e-09, No Iterations 2
smoothSolver:  Solving for Uy, Initial residual = 0.0103005, Final residual = 4.22803e-08, No Iterations 2
smoothSolver:  Solving for Uz, Initial residual = 0.00703943, Final residual = 3.14283e-08, No Iterations 2
GAMG:  Solving for p, Initial residual = 0.725178, Final residual = 0.0323926, No Iterations 1
GAMG:  Solving for p, Initial residual = 0.273808, Final residual = 0.0102173, No Iterations 2
time step continuity errors : sum local = 2.18021e-07, global = 1.02958e-08, cumulative = 3.41565e-06
GAMG:  Solving for p, Initial residual = 0.116661, Final residual = 0.00851716, No Iterations 1
GAMG:  Solving for p, Initial residual = 0.024212, Final residual = 5.82768e-07, No Iterations 11
time step continuity errors : sum local = 8.04699e-12, global = 7.17802e-13, cumulative = 3.41565e-06
smoothSolver:  Solving for omega, Initial residual = 1.90412e-05, Final residual = 1.80127e-08, No Iterations 1
smoothSolver:  Solving for k, Initial residual = 0.000166234, Final residual = 1.61743e-07, No Iterations 1
ExecutionTime = 53.39 s  ClockTime = 53 s

Courant Number mean: 0.0201111 max: 0.499974
deltaT = 6.67459e-05
Time = 0.0997289

PIMPLE: iteration 1
smoothSolver:  Solving for Ux, Initial residual = 8.60661e-09, Final residual = 8.60661e-09, No Iterations 0
smoothSolver:  Solving for Uy, Initial residual = 3.08855e-08, Final residual = 3.08855e-08, No Iterations 0
smoothSolver:  Solving for Uz, Initial residual = 2.30524e-08, Final residual = 2.30524e-08, No Iterations 0
GAMG:  Solving for p, Initial residual = 0.999979, Final residual = 0.0442113, No Iterations 1
GAMG:  Solving for p, Initial residual = 0.0539729, Final residual = 0.00197458, No Iterations 2
time step continuity errors : sum local = 2.13116e-07, global = -9.8882e-09, cumulative = 3.40576e-06
GAMG:  Solving for p, Initial residual = 0.999777, Final residual = 0.0442024, No Iterations 1
GAMG:  Solving for p, Initial residual = 0.0539674, Final residual = 6.53911e-07, No Iterations 11
time step continuity errors : sum local = 7.05764e-11, global = -6.01162e-12, cumulative = 3.40576e-06
PIMPLE: iteration 2
smoothSolver:  Solving for Ux, Initial residual = 0.0016099, Final residual = 7.67014e-09, No Iterations 2
smoothSolver:  Solving for Uy, Initial residual = 0.0102999, Final residual = 4.22738e-08, No Iterations 2
smoothSolver:  Solving for Uz, Initial residual = 0.00703961, Final residual = 3.14271e-08, No Iterations 2
GAMG:  Solving for p, Initial residual = 0.725171, Final residual = 0.0323918, No Iterations 1
GAMG:  Solving for p, Initial residual = 0.273809, Final residual = 0.0102165, No Iterations 2
time step continuity errors : sum local = 2.18032e-07, global = 1.02998e-08, cumulative = 3.41606e-06
GAMG:  Solving for p, Initial residual = 0.116665, Final residual = 0.00851696, No Iterations 1
GAMG:  Solving for p, Initial residual = 0.0242126, Final residual = 5.82737e-07, No Iterations 11
time step continuity errors : sum local = 8.04715e-12, global = 7.17824e-13, cumulative = 3.41606e-06
smoothSolver:  Solving for omega, Initial residual = 1.90295e-05, Final residual = 1.8002e-08, No Iterations 1
smoothSolver:  Solving for k, Initial residual = 0.000166152, Final residual = 1.6163e-07, No Iterations 1
ExecutionTime = 53.43 s  ClockTime = 53 s

Courant Number mean: 0.0201121 max: 0.499974
deltaT = 6.67494e-05
Time = 0.0997957

PIMPLE: iteration 1
smoothSolver:  Solving for Ux, Initial residual = 8.60295e-09, Final residual = 8.60295e-09, No Iterations 0
smoothSolver:  Solving for Uy, Initial residual = 3.08695e-08, Final residual = 3.08695e-08, No Iterations 0
smoothSolver:  Solving for Uz, Initial residual = 2.30451e-08, Final residual = 2.30451e-08, No Iterations 0
GAMG:  Solving for p, Initial residual = 0.999979, Final residual = 0.0442106, No Iterations 1
GAMG:  Solving for p, Initial residual = 0.0539741, Final residual = 0.00197447, No Iterations 2
time step continuity errors : sum local = 2.13127e-07, global = -9.89194e-09, cumulative = 3.40617e-06
GAMG:  Solving for p, Initial residual = 0.999777, Final residual = 0.0442017, No Iterations 1
GAMG:  Solving for p, Initial residual = 0.0539686, Final residual = 6.53804e-07, No Iterations 11
time step continuity errors : sum local = 7.05726e-11, global = -6.01151e-12, cumulative = 3.40616e-06
PIMPLE: iteration 2
smoothSolver:  Solving for Ux, Initial residual = 0.0016098, Final residual = 7.66932e-09, No Iterations 2
smoothSolver:  Solving for Uy, Initial residual = 0.0102993, Final residual = 4.22674e-08, No Iterations 2
smoothSolver:  Solving for Uz, Initial residual = 0.00703979, Final residual = 3.14258e-08, No Iterations 2
GAMG:  Solving for p, Initial residual = 0.72516, Final residual = 0.032391, No Iterations 1
GAMG:  Solving for p, Initial residual = 0.273805, Final residual = 0.0102155, No Iterations 2
time step continuity errors : sum local = 2.18042e-07, global = 1.03037e-08, cumulative = 3.41646e-06
GAMG:  Solving for p, Initial residual = 0.116666, Final residual = 0.00851657, No Iterations 1
GAMG:  Solving for p, Initial residual = 0.0242126, Final residual = 5.82688e-07, No Iterations 11
time step continuity errors : sum local = 8.04724e-12, global = 7.17842e-13, cumulative = 3.41647e-06
smoothSolver:  Solving for omega, Initial residual = 1.90176e-05, Final residual = 1.7991e-08, No Iterations 1
smoothSolver:  Solving for k, Initial residual = 0.00016607, Final residual = 1.61515e-07, No Iterations 1
ExecutionTime = 53.47 s  ClockTime = 53 s

Courant Number mean: 0.0201131 max: 0.499974
deltaT = 6.67528e-05
Time = 0.0998624

PIMPLE: iteration 1
smoothSolver:  Solving for Ux, Initial residual = 8.59967e-09, Final residual = 8.59967e-09, No Iterations 0
smoothSolver:  Solving for Uy, Initial residual = 3.08551e-08, Final residual = 3.08551e-08, No Iterations 0
smoothSolver:  Solving for Uz, Initial residual = 2.30367e-08, Final residual = 2.30367e-08, No Iterations 0
GAMG:  Solving for p, Initial residual = 0.999979, Final residual = 0.04421, No Iterations 1
GAMG:  Solving for p, Initial residual = 0.0539753, Final residual = 0.00197435, No Iterations 2
time step continuity errors : sum local = 2.13138e-07, global = -9.89567e-09, cumulative = 3.40657e-06
GAMG:  Solving for p, Initial residual = 0.999777, Final residual = 0.0442011, No Iterations 1
GAMG:  Solving for p, Initial residual = 0.0539698, Final residual = 6.53698e-07, No Iterations 11
time step continuity errors : sum local = 7.05689e-11, global = -6.01141e-12, cumulative = 3.40656e-06
PIMPLE: iteration 2
smoothSolver:  Solving for Ux, Initial residual = 0.00160969, Final residual = 7.66852e-09, No Iterations 2
smoothSolver:  Solving for Uy, Initial residual = 0.0102986, Final residual = 4.2261e-08, No Iterations 2
smoothSolver:  Solving for Uz, Initial residual = 0.00703996, Final residual = 3.14246e-08, No Iterations 2
GAMG:  Solving for p, Initial residual = 0.72515, Final residual = 0.03239, No Iterations 1
GAMG:  Solving for p, Initial residual = 0.273801, Final residual = 0.0102146, No Iterations 2
time step continuity errors : sum local = 2.18054e-07, global = 1.03076e-08, cumulative = 3.41687e-06
GAMG:  Solving for p, Initial residual = 0.116666, Final residual = 0.00851614, No Iterations 1
GAMG:  Solving for p, Initial residual = 0.0242123, Final residual = 5.82638e-07, No Iterations 11
time step continuity errors : sum local = 8.04737e-12, global = 7.17864e-13, cumulative = 3.41687e-06
smoothSolver:  Solving for omega, Initial residual = 1.90058e-05, Final residual = 1.79804e-08, No Iterations 1
smoothSolver:  Solving for k, Initial residual = 0.000165989, Final residual = 1.61408e-07, No Iterations 1
ExecutionTime = 53.5 s  ClockTime = 53 s

Courant Number mean: 0.0201141 max: 0.499974
deltaT = 6.67562e-05
Time = 0.0999292

PIMPLE: iteration 1
smoothSolver:  Solving for Ux, Initial residual = 8.59671e-09, Final residual = 8.59671e-09, No Iterations 0
smoothSolver:  Solving for Uy, Initial residual = 3.08408e-08, Final residual = 3.08408e-08, No Iterations 0
smoothSolver:  Solving for Uz, Initial residual = 2.30281e-08, Final residual = 2.30281e-08, No Iterations 0
GAMG:  Solving for p, Initial residual = 0.999979, Final residual = 0.0442093, No Iterations 1
GAMG:  Solving for p, Initial residual = 0.0539764, Final residual = 0.00197424, No Iterations 2
time step continuity errors : sum local = 2.13149e-07, global = -9.89935e-09, cumulative = 3.40697e-06
GAMG:  Solving for p, Initial residual = 0.999777, Final residual = 0.0442004, No Iterations 1
GAMG:  Solving for p, Initial residual = 0.053971, Final residual = 6.53591e-07, No Iterations 11
time step continuity errors : sum local = 7.05651e-11, global = -6.0113e-12, cumulative = 3.40697e-06
PIMPLE: iteration 2
smoothSolver:  Solving for Ux, Initial residual = 0.00160958, Final residual = 7.66772e-09, No Iterations 2
smoothSolver:  Solving for Uy, Initial residual = 0.010298, Final residual = 4.22546e-08, No Iterations 2
smoothSolver:  Solving for Uz, Initial residual = 0.00704013, Final residual = 3.14233e-08, No Iterations 2
GAMG:  Solving for p, Initial residual = 0.725143, Final residual = 0.0323892, No Iterations 1
GAMG:  Solving for p, Initial residual = 0.273801, Final residual = 0.0102138, No Iterations 2
time step continuity errors : sum local = 2.18067e-07, global = 1.03115e-08, cumulative = 3.41728e-06
GAMG:  Solving for p, Initial residual = 0.116669, Final residual = 0.00851589, No Iterations 1
GAMG:  Solving for p, Initial residual = 0.0242128, Final residual = 5.82607e-07, No Iterations 11
time step continuity errors : sum local = 8.04757e-12, global = 7.17891e-13, cumulative = 3.41728e-06
smoothSolver:  Solving for omega, Initial residual = 1.8994e-05, Final residual = 1.797e-08, No Iterations 1
smoothSolver:  Solving for k, Initial residual = 0.000165907, Final residual = 1.61299e-07, No Iterations 1
ExecutionTime = 53.53 s  ClockTime = 53 s

Courant Number mean: 0.0201151 max: 0.499974
deltaT = 6.67596e-05
Time = 0.0999959

PIMPLE: iteration 1
smoothSolver:  Solving for Ux, Initial residual = 8.59372e-09, Final residual = 8.59372e-09, No Iterations 0
smoothSolver:  Solving for Uy, Initial residual = 3.08281e-08, Final residual = 3.08281e-08, No Iterations 0
smoothSolver:  Solving for Uz, Initial residual = 2.30201e-08, Final residual = 2.30201e-08, No Iterations 0
GAMG:  Solving for p, Initial residual = 0.999979, Final residual = 0.0442089, No Iterations 1
GAMG:  Solving for p, Initial residual = 0.0539775, Final residual = 0.00197414, No Iterations 2
time step continuity errors : sum local = 2.13161e-07, global = -9.90298e-09, cumulative = 3.40738e-06
GAMG:  Solving for p, Initial residual = 0.999777, Final residual = 0.0442, No Iterations 1
GAMG:  Solving for p, Initial residual = 0.053972, Final residual = 6.53492e-07, No Iterations 11
time step continuity errors : sum local = 7.05621e-11, global = -6.01124e-12, cumulative = 3.40737e-06
PIMPLE: iteration 2
smoothSolver:  Solving for Ux, Initial residual = 0.00160948, Final residual = 7.6669e-09, No Iterations 2
smoothSolver:  Solving for Uy, Initial residual = 0.0102973, Final residual = 4.22483e-08, No Iterations 2
smoothSolver:  Solving for Uz, Initial residual = 0.00704029, Final residual = 3.1422e-08, No Iterations 2
GAMG:  Solving for p, Initial residual = 0.725129, Final residual = 0.0323884, No Iterations 1
GAMG:  Solving for p, Initial residual = 0.273792, Final residual = 0.0102127, No Iterations 2
time step continuity errors : sum local = 2.18077e-07, global = 1.03151e-08, cumulative = 3.41768e-06
GAMG:  Solving for p, Initial residual = 0.116667, Final residual = 0.00851524, No Iterations 1
GAMG:  Solving for p, Initial residual = 0.0242119, Final residual = 5.8254e-07, No Iterations 11
time step continuity errors : sum local = 8.04761e-12, global = 7.17905e-13, cumulative = 3.41769e-06
smoothSolver:  Solving for omega, Initial residual = 1.89822e-05, Final residual = 1.79597e-08, No Iterations 1
smoothSolver:  Solving for k, Initial residual = 0.000165824, Final residual = 1.61188e-07, No Iterations 1
ExecutionTime = 53.57 s  ClockTime = 53 s

End

Finalising parallel run
[SOLVER] completed (exit code: 0)
[SOLVER] Reconstructing parallel results...
[RECONSTRUCT] Running: reconstructPar
/*---------------------------------------------------------------------------*\
| =========                 |                                                 |
| \\      /  F ield         | OpenFOAM: The Open Source CFD Toolbox           |
|  \\    /   O peration     | Version:  2506                                  |
|   \\  /    A nd           | Website:  www.openfoam.com                      |
|    \\/     M anipulation  |                                                 |
\*---------------------------------------------------------------------------*/
Build  : _615aae61-20250627 OPENFOAM=2506 version=2506
Arch   : "LSB;label=32;scalar=64"
Exec   : reconstructPar
Date   : Jan 23 2026
Time   : 14:46:40
Host   : Vortex-Eclipse
PID    : 150093
I/O    : uncollated
Case   : /home/reen/openfoam/Tutorials/Rotating_Setup_Case/OpenFOAM_GUI/WindTunnelGUI/runs/Run_1_20260123_144538/windTunnelCase
nProcs : 1
trapFpe: Floating point exception trapping enabled (FOAM_SIGFPE).
fileModificationChecking : Monitoring run-time modified files using timeStampMaster (fileModificationSkew 5, maxFileModificationPolls 20)
allowSystemOperations : Allowing user-supplied system call operations

// * * * * * * * * * * * * * * * * * * * * * * * * * * * * * * * * * * * * * //
Create time



Reconstructing fields
region=region0

Time = 0.00481874

Reconstructing FV fields

    Reconstructing volScalarFields

        k
        nut
        omega
        p

    Reconstructing volVectorFields

        U

    Reconstructing surfaceScalarFields

        phi

Reconstructing point fields

No point fields

No lagrangian fields

No FA fields

Time = 0.0100415

Reconstructing FV fields

    Reconstructing volScalarFields

        k
        nut
        omega
        p

    Reconstructing volVectorFields

        U

    Reconstructing surfaceScalarFields

        phi

Reconstructing point fields

No point fields

No lagrangian fields

No FA fields

Time = 0.0153607

Reconstructing FV fields

    Reconstructing volScalarFields

        k
        nut
        omega
        p

    Reconstructing volVectorFields

        U

    Reconstructing surfaceScalarFields

        phi

Reconstructing point fields

No point fields

No lagrangian fields

No FA fields

Time = 0.0208027

Reconstructing FV fields

    Reconstructing volScalarFields

        k
        nut
        omega
        p

    Reconstructing volVectorFields

        U

    Reconstructing surfaceScalarFields

        phi

Reconstructing point fields

No point fields

No lagrangian fields

No FA fields

Time = 0.0263843

Reconstructing FV fields

    Reconstructing volScalarFields

        k
        nut
        omega
        p

    Reconstructing volVectorFields

        U

    Reconstructing surfaceScalarFields

        phi

Reconstructing point fields

No point fields

No lagrangian fields

No FA fields

Time = 0.0321432

Reconstructing FV fields

    Reconstructing volScalarFields

        k
        nut
        omega
        p

    Reconstructing volVectorFields

        U

    Reconstructing surfaceScalarFields

        phi

Reconstructing point fields

No point fields

No lagrangian fields

No FA fields

Time = 0.0380925

Reconstructing FV fields

    Reconstructing volScalarFields

        k
        nut
        omega
        p

    Reconstructing volVectorFields

        U

    Reconstructing surfaceScalarFields

        phi

Reconstructing point fields

No point fields

No lagrangian fields

No FA fields

Time = 0.044124

Reconstructing FV fields

    Reconstructing volScalarFields

        k
        nut
        omega
        p

    Reconstructing volVectorFields

        U

    Reconstructing surfaceScalarFields

        phi

Reconstructing point fields

No point fields

No lagrangian fields

No FA fields

Time = 0.0502262

Reconstructing FV fields

    Reconstructing volScalarFields

        k
        nut
        omega
        p

    Reconstructing volVectorFields

        U

    Reconstructing surfaceScalarFields

        phi

Reconstructing point fields

No point fields

No lagrangian fields

No FA fields

Time = 0.0564003

Reconstructing FV fields

    Reconstructing volScalarFields

        k
        nut
        omega
        p

    Reconstructing volVectorFields

        U

    Reconstructing surfaceScalarFields

        phi

Reconstructing point fields

No point fields

No lagrangian fields

No FA fields

Time = 0.0626498

Reconstructing FV fields

    Reconstructing volScalarFields

        k
        nut
        omega
        p

    Reconstructing volVectorFields

        U

    Reconstructing surfaceScalarFields

        phi

Reconstructing point fields

No point fields

No lagrangian fields

No FA fields

Time = 0.0689714

Reconstructing FV fields

    Reconstructing volScalarFields

        k
        nut
        omega
        p

    Reconstructing volVectorFields

        U

    Reconstructing surfaceScalarFields

        phi

Reconstructing point fields

No point fields

No lagrangian fields

No FA fields

Time = 0.0753606

Reconstructing FV fields

    Reconstructing volScalarFields

        k
        nut
        omega
        p

    Reconstructing volVectorFields

        U

    Reconstructing surfaceScalarFields

        phi

Reconstructing point fields

No point fields

No lagrangian fields

No FA fields

Time = 0.0818255

Reconstructing FV fields

    Reconstructing volScalarFields

        k
        nut
        omega
        p

    Reconstructing volVectorFields

        U

    Reconstructing surfaceScalarFields

        phi

Reconstructing point fields

No point fields

No lagrangian fields

No FA fields

Time = 0.0883763

Reconstructing FV fields

    Reconstructing volScalarFields

        k
        nut
        omega
        p

    Reconstructing volVectorFields

        U

    Reconstructing surfaceScalarFields

        phi

Reconstructing point fields

No point fields

No lagrangian fields

No FA fields

Time = 0.094999

Reconstructing FV fields

    Reconstructing volScalarFields

        k
        nut
        omega
        p

    Reconstructing volVectorFields

        U

    Reconstructing surfaceScalarFields

        phi

Reconstructing point fields

No point fields

No lagrangian fields

No FA fields


End

[RECONSTRUCT] completed (exit code: 0)
