[WORKFLOW] Applying settings...
[SETTINGS] Updated controlDict: solver=pimpleFoam, endTime=0.1
[SETTINGS] Updated transportProperties: nu=1.5e-05
[SETTINGS] Updated turbulenceProperties: model=kOmegaSST
[WORKFLOW] Starting solver...
[SOLVER] Decomposing for parallel run...
[DECOMPOSE] Running: decomposePar -force
/*---------------------------------------------------------------------------*\
| =========                 |                                                 |
| \\      /  F ield         | OpenFOAM: The Open Source CFD Toolbox           |
|  \\    /   O peration     | Version:  2506                                  |
|   \\  /    A nd           | Website:  www.openfoam.com                      |
|    \\/     M anipulation  |                                                 |
\*---------------------------------------------------------------------------*/
Build  : _615aae61-20250627 OPENFOAM=2506 version=2506
Arch   : "LSB;label=32;scalar=64"
Exec   : decomposePar -force
Date   : Jan 24 2026
Time   : 18:34:09
Host   : Vortex-Eclipse
PID    : 236248
I/O    : uncollated
Case   : /home/reen/openfoam/Tutorials/Rotating_Setup_Case/OpenFOAM_GUI/WindTunnelGUI/runs/Run_1_20260124_183403/windTunnelCase
nProcs : 1
trapFpe: Floating point exception trapping enabled (FOAM_SIGFPE).
fileModificationChecking : Monitoring run-time modified files using timeStampMaster (fileModificationSkew 5, maxFileModificationPolls 20)
allowSystemOperations : Allowing user-supplied system call operations

// * * * * * * * * * * * * * * * * * * * * * * * * * * * * * * * * * * * * * //
Create time



Decomposing mesh

Create mesh

Calculating distribution of cells
Decomposition method scotch [12] (region region0)

Finished decomposition in 0.13 s

Calculating original mesh data

Distributing cells to processors

Distributing faces to processors

Distributing points to processors

Constructing processor meshes

Processor 0
    Number of cells = 3937
    Number of points = 968
    Number of faces shared with processor 1 = 73
    Number of faces shared with processor 2 = 140
    Number of faces shared with processor 3 = 18
    Number of faces shared with processor 4 = 138
    Number of faces shared with processor 5 = 119
    Number of faces shared with processor 8 = 76
    Number of processor patches = 6
    Number of processor faces = 564
    Number of boundary faces = 504

Processor 1
    Number of cells = 3982
    Number of points = 877
    Number of faces shared with processor 0 = 73
    Number of faces shared with processor 2 = 166
    Number of faces shared with processor 6 = 122
    Number of faces shared with processor 7 = 13
    Number of faces shared with processor 8 = 39
    Number of faces shared with processor 10 = 16
    Number of faces shared with processor 11 = 4
    Number of processor patches = 7
    Number of processor faces = 433
    Number of boundary faces = 279

Processor 2
    Number of cells = 3952
    Number of points = 959
    Number of faces shared with processor 0 = 140
    Number of faces shared with processor 1 = 166
    Number of faces shared with processor 3 = 97
    Number of faces shared with processor 4 = 20
    Number of faces shared with processor 5 = 55
    Number of faces shared with processor 7 = 8
    Number of faces shared with processor 10 = 38
    Number of faces shared with processor 11 = 63
    Number of processor patches = 8
    Number of processor faces = 587
    Number of boundary faces = 451

Processor 3
    Number of cells = 3977
    Number of points = 856
    Number of faces shared with processor 0 = 18
    Number of faces shared with processor 2 = 97
    Number of faces shared with processor 4 = 118
    Number of faces shared with processor 5 = 197
    Number of processor patches = 4
    Number of processor faces = 430
    Number of boundary faces = 214

Processor 4
    Number of cells = 3966
    Number of points = 856
    Number of faces shared with processor 0 = 138
    Number of faces shared with processor 2 = 20
    Number of faces shared with processor 3 = 118
    Number of faces shared with processor 5 = 176
    Number of processor patches = 4
    Number of processor faces = 452
    Number of boundary faces = 222

Processor 5
    Number of cells = 3947
    Number of points = 914
    Number of faces shared with processor 0 = 119
    Number of faces shared with processor 2 = 55
    Number of faces shared with processor 3 = 197
    Number of faces shared with processor 4 = 176
    Number of faces shared with processor 9 = 55
    Number of faces shared with processor 11 = 13
    Number of processor patches = 6
    Number of processor faces = 615
    Number of boundary faces = 259

Processor 6
    Number of cells = 3957
    Number of points = 890
    Number of faces shared with processor 1 = 122
    Number of faces shared with processor 7 = 92
    Number of faces shared with processor 8 = 149
    Number of faces shared with processor 10 = 120
    Number of faces shared with processor 11 = 3
    Number of processor patches = 5
    Number of processor faces = 486
    Number of boundary faces = 302

Processor 7
    Number of cells = 3991
    Number of points = 858
    Number of faces shared with processor 1 = 13
    Number of faces shared with processor 2 = 8
    Number of faces shared with processor 6 = 92
    Number of faces shared with processor 8 = 155
    Number of faces shared with processor 10 = 144
    Number of faces shared with processor 11 = 35
    Number of processor patches = 6
    Number of processor faces = 447
    Number of boundary faces = 187

Processor 8
    Number of cells = 3913
    Number of points = 962
    Number of faces shared with processor 0 = 76
    Number of faces shared with processor 1 = 39
    Number of faces shared with processor 6 = 149
    Number of faces shared with processor 7 = 155
    Number of faces shared with processor 10 = 25
    Number of faces shared with processor 11 = 76
    Number of processor patches = 6
    Number of processor faces = 520
    Number of boundary faces = 538

Processor 9
    Number of cells = 3928
    Number of points = 977
    Number of faces shared with processor 5 = 55
    Number of faces shared with processor 11 = 139
    Number of processor patches = 2
    Number of processor faces = 194
    Number of boundary faces = 936

Processor 10
    Number of cells = 3957
    Number of points = 884
    Number of faces shared with processor 1 = 16
    Number of faces shared with processor 2 = 38
    Number of faces shared with processor 6 = 120
    Number of faces shared with processor 7 = 144
    Number of faces shared with processor 8 = 25
    Number of faces shared with processor 11 = 163
    Number of processor patches = 6
    Number of processor faces = 506
    Number of boundary faces = 248

Processor 11
    Number of cells = 3918
    Number of points = 1014
    Number of faces shared with processor 1 = 4
    Number of faces shared with processor 2 = 63
    Number of faces shared with processor 5 = 13
    Number of faces shared with processor 6 = 3
    Number of faces shared with processor 7 = 35
    Number of faces shared with processor 8 = 76
    Number of faces shared with processor 9 = 139
    Number of faces shared with processor 10 = 163
    Number of processor patches = 8
    Number of processor faces = 496
    Number of boundary faces = 758

Number of processor faces = 2865
Max number of cells = 3991 (0.984713% above average 3952.08)
Max number of processor patches = 8 (41.1765% above average 5.66667)
Max number of faces between processors = 615 (28.7958% above average 477.5)

Time = 0

Processor 0: field transfer
Processor 1: field transfer
Processor 2: field transfer
Processor 3: field transfer
Processor 4: field transfer
Processor 5: field transfer
Processor 6: field transfer
Processor 7: field transfer
Processor 8: field transfer
Processor 9: field transfer
Processor 10: field transfer
Processor 11: field transfer

End

[DECOMPOSE] completed (exit code: 0)
[SOLVER] Running pimpleFoam...
[SOLVER] Running: mpirun -np 12 pimpleFoam -parallel
/*---------------------------------------------------------------------------*\
| =========                 |                                                 |
| \\      /  F ield         | OpenFOAM: The Open Source CFD Toolbox           |
|  \\    /   O peration     | Version:  2506                                  |
|   \\  /    A nd           | Website:  www.openfoam.com                      |
|    \\/     M anipulation  |                                                 |
\*---------------------------------------------------------------------------*/
Build  : _615aae61-20250627 OPENFOAM=2506 version=2506
Arch   : "LSB;label=32;scalar=64"
Exec   : pimpleFoam -parallel
Date   : Jan 24 2026
Time   : 18:34:10
Host   : Vortex-Eclipse
PID    : 237729
I/O    : uncollated
Case   : /home/reen/openfoam/Tutorials/Rotating_Setup_Case/OpenFOAM_GUI/WindTunnelGUI/runs/Run_1_20260124_183403/windTunnelCase
nProcs : 12
Hosts  :
(
    (Vortex-Eclipse 12)
)
Pstream initialized with:
    node communication : off [type=host] (12 ranks, 1 nodes)
    topology controls  : none
    consensus exchange : 0 (tuning: 0)
    exchange algorithm : 0
    commsType          : nonBlocking
    polling iterations : 0
trapFpe: Floating point exception trapping enabled (FOAM_SIGFPE).
fileModificationChecking : Monitoring run-time modified files using timeStampMaster (fileModificationSkew 5, maxFileModificationPolls 20)
allowSystemOperations : Allowing user-supplied system call operations

// * * * * * * * * * * * * * * * * * * * * * * * * * * * * * * * * * * * * * //
Create time

Create mesh for time = 0


PIMPLE: no residual control data found. Calculations will employ 2 corrector loops

Reading field p

Reading field U

Reading/calculating face flux field phi

Selecting incompressible transport model Newtonian
Selecting turbulence model type RAS
Selecting RAS turbulence model kOmegaSST
Selecting patchDistMethod meshWave
RAS
{
    RASModel        kOmegaSST;
    turbulence      on;
    printCoeffs     on;
    alphaK1         0.85;
    alphaK2         1;
    alphaOmega1     0.5;
    alphaOmega2     0.856;
    gamma1          0.555556;
    gamma2          0.44;
    beta1           0.075;
    beta2           0.0828;
    betaStar        0.09;
    a1              0.31;
    b1              1;
    c1              10;
    F3              false;
    decayControl    false;
    kInf            0;
    omegaInf        0;
}

No MRF models present

No finite volume options present
Courant Number mean: 1.30588e-05 max: 0.00273856
Courant Number mean: 1.30588e-05 max: 0.00273856

Starting time loop

Courant Number mean: 1.30588e-05 max: 0.00273856
deltaT = 1.2e-05
Time = 1.2e-05

PIMPLE: iteration 1
smoothSolver:  Solving for Ux, Initial residual = 1, Final residual = 1.75478e-10, No Iterations 1
smoothSolver:  Solving for Uy, Initial residual = 0, Final residual = 0, No Iterations 0
smoothSolver:  Solving for Uz, Initial residual = 0, Final residual = 0, No Iterations 0
GAMG:  Solving for p, Initial residual = 1, Final residual = 0.0521569, No Iterations 6
GAMG:  Solving for p, Initial residual = 0.15215, Final residual = 0.00637115, No Iterations 1
time step continuity errors : sum local = 4.39267e-05, global = -1.57755e-07, cumulative = -1.57755e-07
GAMG:  Solving for p, Initial residual = 0.975733, Final residual = 0.0508713, No Iterations 6
GAMG:  Solving for p, Initial residual = 0.152135, Final residual = 8.12512e-07, No Iterations 10
time step continuity errors : sum local = 5.60198e-09, global = 4.86133e-10, cumulative = -1.57269e-07
PIMPLE: iteration 2
smoothSolver:  Solving for Ux, Initial residual = 0.999982, Final residual = 7.6232e-08, No Iterations 2
smoothSolver:  Solving for Uy, Initial residual = 0.999799, Final residual = 7.30625e-08, No Iterations 2
smoothSolver:  Solving for Uz, Initial residual = 0.999799, Final residual = 8.54838e-08, No Iterations 2
GAMG:  Solving for p, Initial residual = 0.0154746, Final residual = 0.000782115, No Iterations 1
GAMG:  Solving for p, Initial residual = 0.00229931, Final residual = 0.00021305, No Iterations 1
time step continuity errors : sum local = 1.65349e-06, global = -1.49378e-07, cumulative = -3.06647e-07
GAMG:  Solving for p, Initial residual = 0.000840574, Final residual = 4.8002e-05, No Iterations 2
GAMG:  Solving for p, Initial residual = 0.00061636, Final residual = 8.48956e-07, No Iterations 5
time step continuity errors : sum local = 6.64982e-09, global = -7.01438e-10, cumulative = -3.07348e-07
smoothSolver:  Solving for omega, Initial residual = 0.00104027, Final residual = 2.60996e-07, No Iterations 1
smoothSolver:  Solving for k, Initial residual = 1, Final residual = 8.11104e-08, No Iterations 2
ExecutionTime = 0.06 s  ClockTime = 0 s

Courant Number mean: 0.00363185 max: 0.176668
deltaT = 1.44e-05
Time = 2.64e-05

PIMPLE: iteration 1
smoothSolver:  Solving for Ux, Initial residual = 0.000387734, Final residual = 5.52478e-12, No Iterations 1
smoothSolver:  Solving for Uy, Initial residual = 5.97364e-05, Final residual = 7.86336e-13, No Iterations 1
smoothSolver:  Solving for Uz, Initial residual = 5.93045e-05, Final residual = 8.18598e-13, No Iterations 1
GAMG:  Solving for p, Initial residual = 0.99879, Final residual = 0.049473, No Iterations 1
GAMG:  Solving for p, Initial residual = 0.0637456, Final residual = 0.00379735, No Iterations 2
time step continuity errors : sum local = 4.9045e-06, global = 4.53497e-07, cumulative = 1.46149e-07
GAMG:  Solving for p, Initial residual = 0.998688, Final residual = 0.0494681, No Iterations 1
GAMG:  Solving for p, Initial residual = 0.0637378, Final residual = 4.35686e-07, No Iterations 12
time step continuity errors : sum local = 5.62727e-10, global = 6.30212e-11, cumulative = 1.46212e-07
PIMPLE: iteration 2
smoothSolver:  Solving for Ux, Initial residual = 0.861376, Final residual = 4.25527e-08, No Iterations 2
smoothSolver:  Solving for Uy, Initial residual = 0.350279, Final residual = 1.42084e-08, No Iterations 2
smoothSolver:  Solving for Uz, Initial residual = 0.347591, Final residual = 1.81741e-08, No Iterations 2
GAMG:  Solving for p, Initial residual = 0.0412333, Final residual = 0.00316274, No Iterations 3
GAMG:  Solving for p, Initial residual = 0.601543, Final residual = 0.0252975, No Iterations 1
time step continuity errors : sum local = 5.65716e-05, global = 3.27823e-06, cumulative = 3.42444e-06
GAMG:  Solving for p, Initial residual = 0.15583, Final residual = 0.0140973, No Iterations 1
GAMG:  Solving for p, Initial residual = 0.0762936, Final residual = 4.30229e-07, No Iterations 12
time step continuity errors : sum local = 2.99447e-10, global = 3.29667e-11, cumulative = 3.42448e-06
smoothSolver:  Solving for omega, Initial residual = 0.00112876, Final residual = 3.30385e-07, No Iterations 1
smoothSolver:  Solving for k, Initial residual = 0.366908, Final residual = 2.78142e-08, No Iterations 2
ExecutionTime = 0.09 s  ClockTime = 0 s

Courant Number mean: 0.00438599 max: 0.208143
deltaT = 1.728e-05
Time = 4.368e-05

PIMPLE: iteration 1
smoothSolver:  Solving for Ux, Initial residual = 9.49659e-06, Final residual = 1.65493e-13, No Iterations 1
smoothSolver:  Solving for Uy, Initial residual = 7.63163e-06, Final residual = 1.13485e-13, No Iterations 1
smoothSolver:  Solving for Uz, Initial residual = 7.12346e-06, Final residual = 1.02131e-13, No Iterations 1
GAMG:  Solving for p, Initial residual = 0.999863, Final residual = 0.0466891, No Iterations 1
GAMG:  Solving for p, Initial residual = 0.0567141, Final residual = 0.00341977, No Iterations 2
time step continuity errors : sum local = 4.21992e-06, global = 3.83694e-07, cumulative = 3.80817e-06
GAMG:  Solving for p, Initial residual = 0.999639, Final residual = 0.0466788, No Iterations 1
GAMG:  Solving for p, Initial residual = 0.0567073, Final residual = 9.62714e-07, No Iterations 11
time step continuity errors : sum local = 1.18799e-09, global = 1.11225e-10, cumulative = 3.80828e-06
PIMPLE: iteration 2
smoothSolver:  Solving for Ux, Initial residual = 0.301869, Final residual = 2.3056e-08, No Iterations 2
smoothSolver:  Solving for Uy, Initial residual = 0.166015, Final residual = 1.13843e-08, No Iterations 2
smoothSolver:  Solving for Uz, Initial residual = 0.162268, Final residual = 1.06297e-08, No Iterations 2
GAMG:  Solving for p, Initial residual = 0.482731, Final residual = 0.0217721, No Iterations 1
GAMG:  Solving for p, Initial residual = 0.122725, Final residual = 0.00662736, No Iterations 2
time step continuity errors : sum local = 5.53198e-06, global = -5.17113e-07, cumulative = 3.29117e-06
GAMG:  Solving for p, Initial residual = 0.177732, Final residual = 0.00926798, No Iterations 1
GAMG:  Solving for p, Initial residual = 0.0258731, Final residual = 4.88596e-07, No Iterations 11
time step continuity errors : sum local = 1.78254e-10, global = -1.83656e-11, cumulative = 3.29115e-06
smoothSolver:  Solving for omega, Initial residual = 0.00129016, Final residual = 4.64201e-07, No Iterations 1
smoothSolver:  Solving for k, Initial residual = 0.265372, Final residual = 3.10316e-08, No Iterations 2
ExecutionTime = 0.12 s  ClockTime = 0 s

Courant Number mean: 0.00526034 max: 0.242061
deltaT = 2.0736e-05
Time = 6.4416e-05

PIMPLE: iteration 1
smoothSolver:  Solving for Ux, Initial residual = 3.87739e-06, Final residual = 8.5628e-14, No Iterations 1
smoothSolver:  Solving for Uy, Initial residual = 2.61544e-06, Final residual = 5.1666e-14, No Iterations 1
smoothSolver:  Solving for Uz, Initial residual = 2.5068e-06, Final residual = 4.85515e-14, No Iterations 1
GAMG:  Solving for p, Initial residual = 0.999941, Final residual = 0.045162, No Iterations 1
GAMG:  Solving for p, Initial residual = 0.0543132, Final residual = 0.00320072, No Iterations 2
time step continuity errors : sum local = 4.23898e-06, global = 3.84996e-07, cumulative = 3.67615e-06
GAMG:  Solving for p, Initial residual = 0.999713, Final residual = 0.0451518, No Iterations 1
GAMG:  Solving for p, Initial residual = 0.0543067, Final residual = 9.02454e-07, No Iterations 11
time step continuity errors : sum local = 1.19522e-09, global = 1.11295e-10, cumulative = 3.67626e-06
PIMPLE: iteration 2
smoothSolver:  Solving for Ux, Initial residual = 0.225808, Final residual = 2.55049e-08, No Iterations 2
smoothSolver:  Solving for Uy, Initial residual = 0.114335, Final residual = 1.25633e-08, No Iterations 2
smoothSolver:  Solving for Uz, Initial residual = 0.111836, Final residual = 1.16381e-08, No Iterations 2
GAMG:  Solving for p, Initial residual = 0.470379, Final residual = 0.0210489, No Iterations 1
GAMG:  Solving for p, Initial residual = 0.115641, Final residual = 0.00667873, No Iterations 2
time step continuity errors : sum local = 4.70048e-06, global = -4.32367e-07, cumulative = 3.24389e-06
GAMG:  Solving for p, Initial residual = 0.185631, Final residual = 0.00960865, No Iterations 1
GAMG:  Solving for p, Initial residual = 0.0265975, Final residual = 5.00953e-07, No Iterations 11
time step continuity errors : sum local = 1.50387e-10, global = -1.53877e-11, cumulative = 3.24388e-06
smoothSolver:  Solving for omega, Initial residual = 0.00148146, Final residual = 6.54802e-07, No Iterations 1
smoothSolver:  Solving for k, Initial residual = 0.192783, Final residual = 3.50863e-08, No Iterations 2
ExecutionTime = 0.15 s  ClockTime = 0 s

Courant Number mean: 0.0063095 max: 0.281513
deltaT = 2.4419e-05
Time = 8.8835e-05

PIMPLE: iteration 1
smoothSolver:  Solving for Ux, Initial residual = 2.55624e-06, Final residual = 7.00699e-14, No Iterations 1
smoothSolver:  Solving for Uy, Initial residual = 1.76878e-06, Final residual = 4.43335e-14, No Iterations 1
smoothSolver:  Solving for Uz, Initial residual = 1.71965e-06, Final residual = 4.20891e-14, No Iterations 1
GAMG:  Solving for p, Initial residual = 0.999956, Final residual = 0.0440078, No Iterations 1
GAMG:  Solving for p, Initial residual = 0.0526359, Final residual = 0.00302577, No Iterations 2
time step continuity errors : sum local = 4.32638e-06, global = 3.95379e-07, cumulative = 3.63926e-06
GAMG:  Solving for p, Initial residual = 0.999729, Final residual = 0.043998, No Iterations 1
GAMG:  Solving for p, Initial residual = 0.0526296, Final residual = 8.54096e-07, No Iterations 11
time step continuity errors : sum local = 1.22125e-09, global = 1.13314e-10, cumulative = 3.63937e-06
PIMPLE: iteration 2
smoothSolver:  Solving for Ux, Initial residual = 0.188461, Final residual = 3.07473e-08, No Iterations 2
smoothSolver:  Solving for Uy, Initial residual = 0.0986292, Final residual = 1.54551e-08, No Iterations 2
smoothSolver:  Solving for Uz, Initial residual = 0.096164, Final residual = 1.43986e-08, No Iterations 2
GAMG:  Solving for p, Initial residual = 0.492941, Final residual = 0.021602, No Iterations 1
GAMG:  Solving for p, Initial residual = 0.121402, Final residual = 0.00685535, No Iterations 2
time step continuity errors : sum local = 4.64119e-06, global = -4.30925e-07, cumulative = 3.20844e-06
GAMG:  Solving for p, Initial residual = 0.19672, Final residual = 0.0101836, No Iterations 1
GAMG:  Solving for p, Initial residual = 0.0283176, Final residual = 5.32301e-07, No Iterations 11
time step continuity errors : sum local = 1.47313e-10, global = -1.50394e-11, cumulative = 3.20843e-06
smoothSolver:  Solving for omega, Initial residual = 0.00166961, Final residual = 8.88249e-07, No Iterations 1
smoothSolver:  Solving for k, Initial residual = 0.149377, Final residual = 4.09632e-08, No Iterations 2
ExecutionTime = 0.19 s  ClockTime = 0 s

Courant Number mean: 0.00742717 max: 0.321614
deltaT = 2.82153e-05
Time = 0.00011705

PIMPLE: iteration 1
smoothSolver:  Solving for Ux, Initial residual = 1.89982e-06, Final residual = 6.2385e-14, No Iterations 1
smoothSolver:  Solving for Uy, Initial residual = 1.43864e-06, Final residual = 4.4018e-14, No Iterations 1
smoothSolver:  Solving for Uz, Initial residual = 1.39826e-06, Final residual = 4.19178e-14, No Iterations 1
GAMG:  Solving for p, Initial residual = 0.999964, Final residual = 0.0431273, No Iterations 1
GAMG:  Solving for p, Initial residual = 0.0513824, Final residual = 0.00288018, No Iterations 2
time step continuity errors : sum local = 4.4206e-06, global = 4.08093e-07, cumulative = 3.61652e-06
GAMG:  Solving for p, Initial residual = 0.999738, Final residual = 0.0431176, No Iterations 1
GAMG:  Solving for p, Initial residual = 0.0513764, Final residual = 8.13965e-07, No Iterations 11
time step continuity errors : sum local = 1.24932e-09, global = 1.15567e-10, cumulative = 3.61664e-06
PIMPLE: iteration 2
smoothSolver:  Solving for Ux, Initial residual = 0.16258, Final residual = 3.66504e-08, No Iterations 2
smoothSolver:  Solving for Uy, Initial residual = 0.0887557, Final residual = 1.89683e-08, No Iterations 2
smoothSolver:  Solving for Uz, Initial residual = 0.086324, Final residual = 1.77573e-08, No Iterations 2
GAMG:  Solving for p, Initial residual = 0.514474, Final residual = 0.0221327, No Iterations 1
GAMG:  Solving for p, Initial residual = 0.127142, Final residual = 0.00701526, No Iterations 2
time step continuity errors : sum local = 4.67125e-06, global = -4.35872e-07, cumulative = 3.18076e-06
GAMG:  Solving for p, Initial residual = 0.206461, Final residual = 0.0106957, No Iterations 1
GAMG:  Solving for p, Initial residual = 0.0298748, Final residual = 5.60107e-07, No Iterations 11
time step continuity errors : sum local = 1.47145e-10, global = -1.5003e-11, cumulative = 3.18075e-06
smoothSolver:  Solving for omega, Initial residual = 0.00184355, Final residual = 1.24664e-09, No Iterations 2
smoothSolver:  Solving for k, Initial residual = 0.120902, Final residual = 4.78922e-08, No Iterations 2
ExecutionTime = 0.22 s  ClockTime = 0 s

Courant Number mean: 0.00857875 max: 0.364849
deltaT = 3.2082e-05
Time = 0.000149132

PIMPLE: iteration 1
smoothSolver:  Solving for Ux, Initial residual = 1.54463e-06, Final residual = 5.89417e-14, No Iterations 1
smoothSolver:  Solving for Uy, Initial residual = 1.27079e-06, Final residual = 4.63011e-14, No Iterations 1
smoothSolver:  Solving for Uz, Initial residual = 1.23184e-06, Final residual = 4.4157e-14, No Iterations 1
GAMG:  Solving for p, Initial residual = 0.999969, Final residual = 0.0424398, No Iterations 1
GAMG:  Solving for p, Initial residual = 0.0504133, Final residual = 0.00275705, No Iterations 2
time step continuity errors : sum local = 4.50849e-06, global = 4.18235e-07, cumulative = 3.59898e-06
GAMG:  Solving for p, Initial residual = 0.999743, Final residual = 0.0424303, No Iterations 1
GAMG:  Solving for p, Initial residual = 0.0504074, Final residual = 7.79838e-07, No Iterations 11
time step continuity errors : sum local = 1.27526e-09, global = 1.17671e-10, cumulative = 3.5991e-06
PIMPLE: iteration 2
smoothSolver:  Solving for Ux, Initial residual = 0.143429, Final residual = 4.31022e-08, No Iterations 2
smoothSolver:  Solving for Uy, Initial residual = 0.0816572, Final residual = 2.30122e-08, No Iterations 2
smoothSolver:  Solving for Uz, Initial residual = 0.0792267, Final residual = 2.16574e-08, No Iterations 2
GAMG:  Solving for p, Initial residual = 0.53371, Final residual = 0.0226197, No Iterations 1
GAMG:  Solving for p, Initial residual = 0.132785, Final residual = 0.00715749, No Iterations 2
time step continuity errors : sum local = 4.72062e-06, global = -4.42449e-07, cumulative = 3.15665e-06
GAMG:  Solving for p, Initial residual = 0.215018, Final residual = 0.0111502, No Iterations 1
GAMG:  Solving for p, Initial residual = 0.0312842, Final residual = 5.84992e-07, No Iterations 11
time step continuity errors : sum local = 1.47604e-10, global = -1.50276e-11, cumulative = 3.15664e-06
smoothSolver:  Solving for omega, Initial residual = 0.00199846, Final residual = 1.92409e-09, No Iterations 2
smoothSolver:  Solving for k, Initial residual = 0.100736, Final residual = 5.58129e-08, No Iterations 2
ExecutionTime = 0.25 s  ClockTime = 0 s

Courant Number mean: 0.00975113 max: 0.407712
deltaT = 3.60164e-05
Time = 0.000185149

PIMPLE: iteration 1
smoothSolver:  Solving for Ux, Initial residual = 1.35966e-06, Final residual = 5.91909e-14, No Iterations 1
smoothSolver:  Solving for Uy, Initial residual = 1.18393e-06, Final residual = 5.00974e-14, No Iterations 1
smoothSolver:  Solving for Uz, Initial residual = 1.14421e-06, Final residual = 4.80527e-14, No Iterations 1
GAMG:  Solving for p, Initial residual = 0.999973, Final residual = 0.0418803, No Iterations 1
GAMG:  Solving for p, Initial residual = 0.0496551, Final residual = 0.00264977, No Iterations 2
time step continuity errors : sum local = 4.58535e-06, global = 4.31185e-07, cumulative = 3.58782e-06
GAMG:  Solving for p, Initial residual = 0.999748, Final residual = 0.041871, No Iterations 1
GAMG:  Solving for p, Initial residual = 0.0496493, Final residual = 7.50399e-07, No Iterations 11
time step continuity errors : sum local = 1.29856e-09, global = 1.19564e-10, cumulative = 3.58794e-06
PIMPLE: iteration 2
smoothSolver:  Solving for Ux, Initial residual = 0.128688, Final residual = 5.00887e-08, No Iterations 2
smoothSolver:  Solving for Uy, Initial residual = 0.0762403, Final residual = 2.75865e-08, No Iterations 2
smoothSolver:  Solving for Uz, Initial residual = 0.0738065, Final residual = 2.61168e-08, No Iterations 2
GAMG:  Solving for p, Initial residual = 0.55089, Final residual = 0.0230687, No Iterations 1
GAMG:  Solving for p, Initial residual = 0.138276, Final residual = 0.00728609, No Iterations 2
time step continuity errors : sum local = 4.77588e-06, global = -4.49317e-07, cumulative = 3.13863e-06
GAMG:  Solving for p, Initial residual = 0.222674, Final residual = 0.0115595, No Iterations 1
GAMG:  Solving for p, Initial residual = 0.0325869, Final residual = 6.07829e-07, No Iterations 11
time step continuity errors : sum local = 1.48296e-10, global = -1.50777e-11, cumulative = 3.13861e-06
smoothSolver:  Solving for omega, Initial residual = 0.00213343, Final residual = 2.84444e-09, No Iterations 2
smoothSolver:  Solving for k, Initial residual = 0.0857255, Final residual = 6.47727e-08, No Iterations 2
ExecutionTime = 0.28 s  ClockTime = 0 s

Courant Number mean: 0.0109435 max: 0.449445
deltaT = 4.00231e-05
Time = 0.000225172

PIMPLE: iteration 1
smoothSolver:  Solving for Ux, Initial residual = 1.27816e-06, Final residual = 6.2191e-14, No Iterations 1
smoothSolver:  Solving for Uy, Initial residual = 1.14512e-06, Final residual = 5.50048e-14, No Iterations 1
smoothSolver:  Solving for Uz, Initial residual = 1.10302e-06, Final residual = 5.30022e-14, No Iterations 1
GAMG:  Solving for p, Initial residual = 0.999975, Final residual = 0.0414176, No Iterations 1
GAMG:  Solving for p, Initial residual = 0.0490587, Final residual = 0.00255784, No Iterations 2
time step continuity errors : sum local = 4.65654e-06, global = 4.39384e-07, cumulative = 3.57799e-06
GAMG:  Solving for p, Initial residual = 0.999752, Final residual = 0.0414084, No Iterations 1
GAMG:  Solving for p, Initial residual = 0.049053, Final residual = 7.24831e-07, No Iterations 11
time step continuity errors : sum local = 1.31957e-09, global = 1.21278e-10, cumulative = 3.57812e-06
PIMPLE: iteration 2
smoothSolver:  Solving for Ux, Initial residual = 0.117022, Final residual = 5.75574e-08, No Iterations 2
smoothSolver:  Solving for Uy, Initial residual = 0.0719435, Final residual = 3.27054e-08, No Iterations 2
smoothSolver:  Solving for Uz, Initial residual = 0.0695144, Final residual = 3.11867e-08, No Iterations 2
GAMG:  Solving for p, Initial residual = 0.56634, Final residual = 0.0234798, No Iterations 1
GAMG:  Solving for p, Initial residual = 0.143625, Final residual = 0.00740381, No Iterations 2
time step continuity errors : sum local = 4.83119e-06, global = -4.56091e-07, cumulative = 3.12202e-06
GAMG:  Solving for p, Initial residual = 0.229536, Final residual = 0.0119302, No Iterations 1
GAMG:  Solving for p, Initial residual = 0.0337872, Final residual = 6.28742e-07, No Iterations 11
time step continuity errors : sum local = 1.49013e-10, global = -1.51276e-11, cumulative = 3.12201e-06
smoothSolver:  Solving for omega, Initial residual = 0.00224831, Final residual = 4.06584e-09, No Iterations 2
smoothSolver:  Solving for k, Initial residual = 0.0740976, Final residual = 7.49707e-08, No Iterations 2
ExecutionTime = 0.31 s  ClockTime = 0 s

Courant Number mean: 0.0121573 max: 0.490126
deltaT = 4.08294e-05
Time = 0.000266001

PIMPLE: iteration 1
smoothSolver:  Solving for Ux, Initial residual = 1.16764e-06, Final residual = 5.77541e-14, No Iterations 1
smoothSolver:  Solving for Uy, Initial residual = 1.05324e-06, Final residual = 5.23092e-14, No Iterations 1
smoothSolver:  Solving for Uz, Initial residual = 1.01208e-06, Final residual = 5.0538e-14, No Iterations 1
GAMG:  Solving for p, Initial residual = 0.999979, Final residual = 0.0410324, No Iterations 1
GAMG:  Solving for p, Initial residual = 0.0485833, Final residual = 0.00247783, No Iterations 2
time step continuity errors : sum local = 4.37069e-06, global = 4.13584e-07, cumulative = 3.53559e-06
GAMG:  Solving for p, Initial residual = 0.999757, Final residual = 0.0410234, No Iterations 1
GAMG:  Solving for p, Initial residual = 0.0485776, Final residual = 7.02486e-07, No Iterations 11
time step continuity errors : sum local = 1.23915e-09, global = 1.13746e-10, cumulative = 3.53571e-06
PIMPLE: iteration 2
smoothSolver:  Solving for Ux, Initial residual = 0.107109, Final residual = 5.40683e-08, No Iterations 2
smoothSolver:  Solving for Uy, Initial residual = 0.0677633, Final residual = 3.16934e-08, No Iterations 2
smoothSolver:  Solving for Uz, Initial residual = 0.0653476, Final residual = 3.03566e-08, No Iterations 2
GAMG:  Solving for p, Initial residual = 0.579013, Final residual = 0.0238024, No Iterations 1
GAMG:  Solving for p, Initial residual = 0.148109, Final residual = 0.00748133, No Iterations 2
time step continuity errors : sum local = 4.4911e-06, global = -4.25181e-07, cumulative = 3.11053e-06
GAMG:  Solving for p, Initial residual = 0.233492, Final residual = 0.012166, No Iterations 1
GAMG:  Solving for p, Initial residual = 0.0346013, Final residual = 6.44175e-07, No Iterations 11
time step continuity errors : sum local = 1.3812e-10, global = -1.40155e-11, cumulative = 3.11051e-06
smoothSolver:  Solving for omega, Initial residual = 0.00217211, Final residual = 4.18603e-09, No Iterations 2
smoothSolver:  Solving for k, Initial residual = 0.0601122, Final residual = 6.54315e-08, No Iterations 2
ExecutionTime = 0.34 s  ClockTime = 0 s

Courant Number mean: 0.0123988 max: 0.491062
deltaT = 4.15726e-05
Time = 0.000307574

PIMPLE: iteration 1
smoothSolver:  Solving for Ux, Initial residual = 1.12885e-06, Final residual = 5.599e-14, No Iterations 1
smoothSolver:  Solving for Uy, Initial residual = 1.01453e-06, Final residual = 5.12475e-14, No Iterations 1
smoothSolver:  Solving for Uz, Initial residual = 9.73547e-07, Final residual = 9.73547e-07, No Iterations 0
GAMG:  Solving for p, Initial residual = 0.999981, Final residual = 0.0407064, No Iterations 1
GAMG:  Solving for p, Initial residual = 0.0481958, Final residual = 0.00240666, No Iterations 2
time step continuity errors : sum local = 4.12052e-06, global = 3.90771e-07, cumulative = 3.50128e-06
GAMG:  Solving for p, Initial residual = 0.99976, Final residual = 0.0406975, No Iterations 1
GAMG:  Solving for p, Initial residual = 0.0481902, Final residual = 6.82529e-07, No Iterations 11
time step continuity errors : sum local = 1.1686e-09, global = 1.07165e-10, cumulative = 3.50139e-06
PIMPLE: iteration 2
smoothSolver:  Solving for Ux, Initial residual = 0.0995537, Final residual = 5.18134e-08, No Iterations 2
smoothSolver:  Solving for Uy, Initial residual = 0.0646529, Final residual = 3.10681e-08, No Iterations 2
smoothSolver:  Solving for Uz, Initial residual = 0.0622518, Final residual = 2.9909e-08, No Iterations 2
GAMG:  Solving for p, Initial residual = 0.591125, Final residual = 0.0241174, No Iterations 1
GAMG:  Solving for p, Initial residual = 0.152741, Final residual = 0.00756121, No Iterations 2
time step continuity errors : sum local = 4.22673e-06, global = -4.01137e-07, cumulative = 3.10025e-06
GAMG:  Solving for p, Initial residual = 0.237738, Final residual = 0.0124191, No Iterations 1
GAMG:  Solving for p, Initial residual = 0.0355169, Final residual = 6.61473e-07, No Iterations 11
time step continuity errors : sum local = 1.2964e-10, global = -1.31482e-11, cumulative = 3.10024e-06
smoothSolver:  Solving for omega, Initial residual = 0.00209655, Final residual = 4.29313e-09, No Iterations 2
smoothSolver:  Solving for k, Initial residual = 0.0501851, Final residual = 5.83359e-08, No Iterations 2
ExecutionTime = 0.38 s  ClockTime = 0 s

Courant Number mean: 0.0126213 max: 0.491398
deltaT = 4.23003e-05
Time = 0.000349874

PIMPLE: iteration 1
smoothSolver:  Solving for Ux, Initial residual = 1.10552e-06, Final residual = 5.47658e-14, No Iterations 1
smoothSolver:  Solving for Uy, Initial residual = 9.86537e-07, Final residual = 9.86537e-07, No Iterations 0
smoothSolver:  Solving for Uz, Initial residual = 9.4532e-07, Final residual = 9.4532e-07, No Iterations 0
GAMG:  Solving for p, Initial residual = 0.999982, Final residual = 0.0404253, No Iterations 1
GAMG:  Solving for p, Initial residual = 0.0478787, Final residual = 0.00234306, No Iterations 2
time step continuity errors : sum local = 3.90311e-06, global = 3.70788e-07, cumulative = 3.47103e-06
GAMG:  Solving for p, Initial residual = 0.999762, Final residual = 0.0404164, No Iterations 1
GAMG:  Solving for p, Initial residual = 0.0478731, Final residual = 6.6464e-07, No Iterations 11
time step continuity errors : sum local = 1.10718e-09, global = 1.0145e-10, cumulative = 3.47113e-06
PIMPLE: iteration 2
smoothSolver:  Solving for Ux, Initial residual = 0.0931984, Final residual = 5.00018e-08, No Iterations 2
smoothSolver:  Solving for Uy, Initial residual = 0.0619801, Final residual = 3.0581e-08, No Iterations 2
smoothSolver:  Solving for Uz, Initial residual = 0.0596, Final residual = 2.96156e-08, No Iterations 2
GAMG:  Solving for p, Initial residual = 0.602101, Final residual = 0.0244044, No Iterations 1
GAMG:  Solving for p, Initial residual = 0.157213, Final residual = 0.0076343, No Iterations 2
time step continuity errors : sum local = 3.99872e-06, global = -3.80192e-07, cumulative = 3.09094e-06
GAMG:  Solving for p, Initial residual = 0.241387, Final residual = 0.012642, No Iterations 1
GAMG:  Solving for p, Initial residual = 0.0363442, Final residual = 6.77166e-07, No Iterations 11
time step continuity errors : sum local = 1.2233e-10, global = -1.24014e-11, cumulative = 3.09093e-06
smoothSolver:  Solving for omega, Initial residual = 0.00202345, Final residual = 4.38853e-09, No Iterations 2
smoothSolver:  Solving for k, Initial residual = 0.0428253, Final residual = 5.29005e-08, No Iterations 2
ExecutionTime = 0.41 s  ClockTime = 0 s

Courant Number mean: 0.0128392 max: 0.491721
deltaT = 4.30125e-05
Time = 0.000392886

PIMPLE: iteration 1
smoothSolver:  Solving for Ux, Initial residual = 1.0918e-06, Final residual = 5.39638e-14, No Iterations 1
smoothSolver:  Solving for Uy, Initial residual = 9.65619e-07, Final residual = 9.65619e-07, No Iterations 0
smoothSolver:  Solving for Uz, Initial residual = 9.24109e-07, Final residual = 9.24109e-07, No Iterations 0
GAMG:  Solving for p, Initial residual = 0.999982, Final residual = 0.0401822, No Iterations 1
GAMG:  Solving for p, Initial residual = 0.0476164, Final residual = 0.00228606, No Iterations 2
time step continuity errors : sum local = 3.71229e-06, global = 3.53108e-07, cumulative = 3.44403e-06
GAMG:  Solving for p, Initial residual = 0.999763, Final residual = 0.0401735, No Iterations 1
GAMG:  Solving for p, Initial residual = 0.047611, Final residual = 6.48539e-07, No Iterations 11
time step continuity errors : sum local = 1.05316e-09, global = 9.64375e-11, cumulative = 3.44413e-06
PIMPLE: iteration 2
smoothSolver:  Solving for Ux, Initial residual = 0.0877847, Final residual = 4.8568e-08, No Iterations 2
smoothSolver:  Solving for Uy, Initial residual = 0.0596546, Final residual = 3.02266e-08, No Iterations 2
smoothSolver:  Solving for Uz, Initial residual = 0.0573021, Final residual = 2.94717e-08, No Iterations 2
GAMG:  Solving for p, Initial residual = 0.612098, Final residual = 0.0246666, No Iterations 1
GAMG:  Solving for p, Initial residual = 0.161531, Final residual = 0.00770188, No Iterations 2
time step continuity errors : sum local = 3.79926e-06, global = -3.61746e-07, cumulative = 3.08238e-06
GAMG:  Solving for p, Initial residual = 0.244471, Final residual = 0.0128373, No Iterations 1
GAMG:  Solving for p, Initial residual = 0.0370937, Final residual = 6.91409e-07, No Iterations 11
time step continuity errors : sum local = 1.15937e-10, global = -1.17479e-11, cumulative = 3.08237e-06
smoothSolver:  Solving for omega, Initial residual = 0.0019525, Final residual = 4.46849e-09, No Iterations 2
smoothSolver:  Solving for k, Initial residual = 0.0371809, Final residual = 4.87381e-08, No Iterations 2
ExecutionTime = 0.45 s  ClockTime = 0 s

Courant Number mean: 0.0130525 max: 0.492032
deltaT = 4.3709e-05
Time = 0.000436596

PIMPLE: iteration 1
smoothSolver:  Solving for Ux, Initial residual = 1.08413e-06, Final residual = 5.34621e-14, No Iterations 1
smoothSolver:  Solving for Uy, Initial residual = 9.49924e-07, Final residual = 9.49924e-07, No Iterations 0
smoothSolver:  Solving for Uz, Initial residual = 9.07987e-07, Final residual = 9.07987e-07, No Iterations 0
GAMG:  Solving for p, Initial residual = 0.999983, Final residual = 0.0399695, No Iterations 1
GAMG:  Solving for p, Initial residual = 0.0473966, Final residual = 0.00223628, No Iterations 2
time step continuity errors : sum local = 3.54574e-06, global = 3.32688e-07, cumulative = 3.41506e-06
GAMG:  Solving for p, Initial residual = 0.999765, Final residual = 0.0399608, No Iterations 1
GAMG:  Solving for p, Initial residual = 0.0473912, Final residual = 6.33981e-07, No Iterations 11
time step continuity errors : sum local = 1.00523e-09, global = 9.19996e-11, cumulative = 3.41515e-06
PIMPLE: iteration 2
smoothSolver:  Solving for Ux, Initial residual = 0.083126, Final residual = 4.75273e-08, No Iterations 2
smoothSolver:  Solving for Uy, Initial residual = 0.0576107, Final residual = 2.99495e-08, No Iterations 2
smoothSolver:  Solving for Uz, Initial residual = 0.0552872, Final residual = 2.93811e-08, No Iterations 2
GAMG:  Solving for p, Initial residual = 0.621239, Final residual = 0.0249084, No Iterations 1
GAMG:  Solving for p, Initial residual = 0.165674, Final residual = 0.00776433, No Iterations 2
time step continuity errors : sum local = 3.62314e-06, global = -3.45357e-07, cumulative = 3.06979e-06
GAMG:  Solving for p, Initial residual = 0.247057, Final residual = 0.0130076, No Iterations 1
GAMG:  Solving for p, Initial residual = 0.0377711, Final residual = 7.04282e-07, No Iterations 11
time step continuity errors : sum local = 1.10299e-10, global = -1.11717e-11, cumulative = 3.06978e-06
smoothSolver:  Solving for omega, Initial residual = 0.00188388, Final residual = 4.54455e-09, No Iterations 2
smoothSolver:  Solving for k, Initial residual = 0.032714, Final residual = 4.53008e-08, No Iterations 2
ExecutionTime = 0.48 s  ClockTime = 0 s

Courant Number mean: 0.0132612 max: 0.49232
deltaT = 4.43909e-05
Time = 0.000480986

PIMPLE: iteration 1
smoothSolver:  Solving for Ux, Initial residual = 1.08022e-06, Final residual = 5.31484e-14, No Iterations 1
smoothSolver:  Solving for Uy, Initial residual = 9.37839e-07, Final residual = 9.37839e-07, No Iterations 0
smoothSolver:  Solving for Uz, Initial residual = 8.95718e-07, Final residual = 8.95718e-07, No Iterations 0
GAMG:  Solving for p, Initial residual = 0.999983, Final residual = 0.0397822, No Iterations 1
GAMG:  Solving for p, Initial residual = 0.0472107, Final residual = 0.00218986, No Iterations 2
time step continuity errors : sum local = 3.39485e-06, global = 3.18746e-07, cumulative = 3.38853e-06
GAMG:  Solving for p, Initial residual = 0.999766, Final residual = 0.0397737, No Iterations 1
GAMG:  Solving for p, Initial residual = 0.0472053, Final residual = 6.2078e-07, No Iterations 11
time step continuity errors : sum local = 9.62386e-10, global = 8.80427e-11, cumulative = 3.38862e-06
PIMPLE: iteration 2
smoothSolver:  Solving for Ux, Initial residual = 0.0790843, Final residual = 4.67296e-08, No Iterations 2
smoothSolver:  Solving for Uy, Initial residual = 0.0558011, Final residual = 2.97493e-08, No Iterations 2
smoothSolver:  Solving for Uz, Initial residual = 0.0535062, Final residual = 2.93959e-08, No Iterations 2
GAMG:  Solving for p, Initial residual = 0.62962, Final residual = 0.0251315, No Iterations 1
GAMG:  Solving for p, Initial residual = 0.169646, Final residual = 0.00782422, No Iterations 2
time step continuity errors : sum local = 3.46719e-06, global = -3.29133e-07, cumulative = 3.05949e-06
GAMG:  Solving for p, Initial residual = 0.249121, Final residual = 0.0131558, No Iterations 1
GAMG:  Solving for p, Initial residual = 0.0384074, Final residual = 7.16155e-07, No Iterations 11
time step continuity errors : sum local = 1.05308e-10, global = -1.0664e-11, cumulative = 3.05947e-06
smoothSolver:  Solving for omega, Initial residual = 0.00181758, Final residual = 4.62177e-09, No Iterations 2
smoothSolver:  Solving for k, Initial residual = 0.0290991, Final residual = 4.24433e-08, No Iterations 2
ExecutionTime = 0.51 s  ClockTime = 0 s

Courant Number mean: 0.0134656 max: 0.492584
deltaT = 4.50592e-05
Time = 0.000526046

PIMPLE: iteration 1
smoothSolver:  Solving for Ux, Initial residual = 1.07878e-06, Final residual = 5.30197e-14, No Iterations 1
smoothSolver:  Solving for Uy, Initial residual = 9.28538e-07, Final residual = 9.28538e-07, No Iterations 0
smoothSolver:  Solving for Uz, Initial residual = 8.86156e-07, Final residual = 8.86156e-07, No Iterations 0
GAMG:  Solving for p, Initial residual = 0.999983, Final residual = 0.0396155, No Iterations 1
GAMG:  Solving for p, Initial residual = 0.0470547, Final residual = 0.00214665, No Iterations 2
time step continuity errors : sum local = 3.25774e-06, global = 3.08949e-07, cumulative = 3.36842e-06
GAMG:  Solving for p, Initial residual = 0.999768, Final residual = 0.039607, No Iterations 1
GAMG:  Solving for p, Initial residual = 0.0470493, Final residual = 6.08767e-07, No Iterations 11
time step continuity errors : sum local = 9.23872e-10, global = 8.44914e-11, cumulative = 3.36851e-06
PIMPLE: iteration 2
smoothSolver:  Solving for Ux, Initial residual = 0.0755495, Final residual = 4.61229e-08, No Iterations 2
smoothSolver:  Solving for Uy, Initial residual = 0.0541868, Final residual = 2.96427e-08, No Iterations 2
smoothSolver:  Solving for Uz, Initial residual = 0.0519194, Final residual = 2.94999e-08, No Iterations 2
GAMG:  Solving for p, Initial residual = 0.637324, Final residual = 0.0253362, No Iterations 1
GAMG:  Solving for p, Initial residual = 0.173455, Final residual = 0.00787812, No Iterations 2
time step continuity errors : sum local = 3.32671e-06, global = -3.15989e-07, cumulative = 3.05252e-06
GAMG:  Solving for p, Initial residual = 0.25093, Final residual = 0.013286, No Iterations 1
GAMG:  Solving for p, Initial residual = 0.0389798, Final residual = 7.26936e-07, No Iterations 11
time step continuity errors : sum local = 1.00821e-10, global = -1.02052e-11, cumulative = 3.05251e-06
smoothSolver:  Solving for omega, Initial residual = 0.00175368, Final residual = 4.71027e-09, No Iterations 2
smoothSolver:  Solving for k, Initial residual = 0.0261162, Final residual = 4.00486e-08, No Iterations 2
ExecutionTime = 0.54 s  ClockTime = 0 s

Courant Number mean: 0.013666 max: 0.49285
deltaT = 4.57129e-05
Time = 0.000571758

PIMPLE: iteration 1
smoothSolver:  Solving for Ux, Initial residual = 1.07875e-06, Final residual = 5.2978e-14, No Iterations 1
smoothSolver:  Solving for Uy, Initial residual = 9.21522e-07, Final residual = 9.21522e-07, No Iterations 0
smoothSolver:  Solving for Uz, Initial residual = 8.7872e-07, Final residual = 8.7872e-07, No Iterations 0
GAMG:  Solving for p, Initial residual = 0.999984, Final residual = 0.0394655, No Iterations 1
GAMG:  Solving for p, Initial residual = 0.046923, Final residual = 0.00210829, No Iterations 2
time step continuity errors : sum local = 3.13533e-06, global = 2.97406e-07, cumulative = 3.34992e-06
GAMG:  Solving for p, Initial residual = 0.999769, Final residual = 0.0394571, No Iterations 1
GAMG:  Solving for p, Initial residual = 0.0469177, Final residual = 5.978e-07, No Iterations 11
time step continuity errors : sum local = 8.89026e-10, global = 8.12851e-11, cumulative = 3.35e-06
PIMPLE: iteration 2
smoothSolver:  Solving for Ux, Initial residual = 0.0724412, Final residual = 4.57145e-08, No Iterations 2
smoothSolver:  Solving for Uy, Initial residual = 0.0527382, Final residual = 2.96175e-08, No Iterations 2
smoothSolver:  Solving for Uz, Initial residual = 0.0504966, Final residual = 2.96931e-08, No Iterations 2
GAMG:  Solving for p, Initial residual = 0.644398, Final residual = 0.0255254, No Iterations 1
GAMG:  Solving for p, Initial residual = 0.17711, Final residual = 0.00792819, No Iterations 2
time step continuity errors : sum local = 3.19993e-06, global = -3.04094e-07, cumulative = 3.0459e-06
GAMG:  Solving for p, Initial residual = 0.252408, Final residual = 0.0133991, No Iterations 1
GAMG:  Solving for p, Initial residual = 0.0394994, Final residual = 7.36699e-07, No Iterations 11
time step continuity errors : sum local = 9.67815e-11, global = -9.79245e-12, cumulative = 3.04589e-06
smoothSolver:  Solving for omega, Initial residual = 0.00169203, Final residual = 4.78159e-09, No Iterations 2
smoothSolver:  Solving for k, Initial residual = 0.0236161, Final residual = 3.79309e-08, No Iterations 2
ExecutionTime = 0.58 s  ClockTime = 0 s

Courant Number mean: 0.013862 max: 0.493242
deltaT = 4.63392e-05
Time = 0.000618098

PIMPLE: iteration 1
smoothSolver:  Solving for Ux, Initial residual = 1.07953e-06, Final residual = 5.29625e-14, No Iterations 1
smoothSolver:  Solving for Uy, Initial residual = 9.15738e-07, Final residual = 9.15738e-07, No Iterations 0
smoothSolver:  Solving for Uz, Initial residual = 8.72735e-07, Final residual = 8.72735e-07, No Iterations 0
GAMG:  Solving for p, Initial residual = 0.999984, Final residual = 0.0393287, No Iterations 1
GAMG:  Solving for p, Initial residual = 0.0468107, Final residual = 0.00207329, No Iterations 2
time step continuity errors : sum local = 3.02332e-06, global = 2.86797e-07, cumulative = 3.33269e-06
GAMG:  Solving for p, Initial residual = 0.99977, Final residual = 0.0393203, No Iterations 1
GAMG:  Solving for p, Initial residual = 0.0468055, Final residual = 5.87765e-07, No Iterations 11
time step continuity errors : sum local = 8.57103e-10, global = 7.83534e-11, cumulative = 3.33277e-06
PIMPLE: iteration 2
smoothSolver:  Solving for Ux, Initial residual = 0.0696842, Final residual = 4.53946e-08, No Iterations 2
smoothSolver:  Solving for Uy, Initial residual = 0.0514311, Final residual = 2.96373e-08, No Iterations 2
smoothSolver:  Solving for Uz, Initial residual = 0.0492144, Final residual = 2.99207e-08, No Iterations 2
GAMG:  Solving for p, Initial residual = 0.650918, Final residual = 0.0257013, No Iterations 1
GAMG:  Solving for p, Initial residual = 0.180602, Final residual = 0.0079746, No Iterations 2
time step continuity errors : sum local = 3.08392e-06, global = -2.93158e-07, cumulative = 3.03961e-06
GAMG:  Solving for p, Initial residual = 0.253616, Final residual = 0.0134972, No Iterations 1
GAMG:  Solving for p, Initial residual = 0.0399686, Final residual = 7.4552e-07, No Iterations 11
time step continuity errors : sum local = 9.30962e-11, global = -9.4159e-12, cumulative = 3.0396e-06
smoothSolver:  Solving for omega, Initial residual = 0.00163164, Final residual = 4.84508e-09, No Iterations 2
smoothSolver:  Solving for k, Initial residual = 0.0214869, Final residual = 3.61002e-08, No Iterations 2
ExecutionTime = 0.61 s  ClockTime = 0 s

Courant Number mean: 0.0140498 max: 0.49367
deltaT = 4.69333e-05
Time = 0.000665031

PIMPLE: iteration 1
smoothSolver:  Solving for Ux, Initial residual = 1.0802e-06, Final residual = 5.29214e-14, No Iterations 1
smoothSolver:  Solving for Uy, Initial residual = 9.1105e-07, Final residual = 9.1105e-07, No Iterations 0
smoothSolver:  Solving for Uz, Initial residual = 8.67671e-07, Final residual = 8.67671e-07, No Iterations 0
GAMG:  Solving for p, Initial residual = 0.999984, Final residual = 0.0392029, No Iterations 1
GAMG:  Solving for p, Initial residual = 0.046719, Final residual = 0.00204129, No Iterations 2
time step continuity errors : sum local = 2.91993e-06, global = 2.76971e-07, cumulative = 3.31657e-06
GAMG:  Solving for p, Initial residual = 0.99977, Final residual = 0.0391945, No Iterations 1
GAMG:  Solving for p, Initial residual = 0.0467137, Final residual = 5.7858e-07, No Iterations 11
time step continuity errors : sum local = 8.27632e-10, global = 7.56514e-11, cumulative = 3.31665e-06
PIMPLE: iteration 2
smoothSolver:  Solving for Ux, Initial residual = 0.0672265, Final residual = 4.50919e-08, No Iterations 2
smoothSolver:  Solving for Uy, Initial residual = 0.0502473, Final residual = 2.96522e-08, No Iterations 2
smoothSolver:  Solving for Uz, Initial residual = 0.0480542, Final residual = 3.01919e-08, No Iterations 2
GAMG:  Solving for p, Initial residual = 0.656947, Final residual = 0.0258635, No Iterations 1
GAMG:  Solving for p, Initial residual = 0.183953, Final residual = 0.00801776, No Iterations 2
time step continuity errors : sum local = 2.97701e-06, global = -2.83054e-07, cumulative = 3.03359e-06
GAMG:  Solving for p, Initial residual = 0.254558, Final residual = 0.013581, No Iterations 1
GAMG:  Solving for p, Initial residual = 0.0403914, Final residual = 7.53487e-07, No Iterations 11
time step continuity errors : sum local = 8.97127e-11, global = -9.07032e-12, cumulative = 3.03358e-06
smoothSolver:  Solving for omega, Initial residual = 0.00157264, Final residual = 4.89939e-09, No Iterations 2
smoothSolver:  Solving for k, Initial residual = 0.0196516, Final residual = 3.43969e-08, No Iterations 2
ExecutionTime = 0.64 s  ClockTime = 0 s

Courant Number mean: 0.0142279 max: 0.494023
deltaT = 4.75011e-05
Time = 0.000712532

PIMPLE: iteration 1
smoothSolver:  Solving for Ux, Initial residual = 1.08066e-06, Final residual = 5.28577e-14, No Iterations 1
smoothSolver:  Solving for Uy, Initial residual = 9.07092e-07, Final residual = 9.07092e-07, No Iterations 0
smoothSolver:  Solving for Uz, Initial residual = 8.63571e-07, Final residual = 8.63571e-07, No Iterations 0
GAMG:  Solving for p, Initial residual = 0.999984, Final residual = 0.0390889, No Iterations 1
GAMG:  Solving for p, Initial residual = 0.0466423, Final residual = 0.00201194, No Iterations 2
time step continuity errors : sum local = 2.82445e-06, global = 2.67868e-07, cumulative = 3.30145e-06
GAMG:  Solving for p, Initial residual = 0.999771, Final residual = 0.0390806, No Iterations 1
GAMG:  Solving for p, Initial residual = 0.0466371, Final residual = 5.70142e-07, No Iterations 11
time step continuity errors : sum local = 8.00398e-10, global = 7.31589e-11, cumulative = 3.30152e-06
PIMPLE: iteration 2
smoothSolver:  Solving for Ux, Initial residual = 0.0650204, Final residual = 4.48328e-08, No Iterations 2
smoothSolver:  Solving for Uy, Initial residual = 0.0491733, Final residual = 2.96768e-08, No Iterations 2
smoothSolver:  Solving for Uz, Initial residual = 0.0470039, Final residual = 3.05234e-08, No Iterations 2
GAMG:  Solving for p, Initial residual = 0.662556, Final residual = 0.026013, No Iterations 1
GAMG:  Solving for p, Initial residual = 0.187162, Final residual = 0.0080575, No Iterations 2
time step continuity errors : sum local = 2.87835e-06, global = -2.73698e-07, cumulative = 3.02783e-06
GAMG:  Solving for p, Initial residual = 0.255267, Final residual = 0.0136521, No Iterations 1
GAMG:  Solving for p, Initial residual = 0.0407745, Final residual = 7.60694e-07, No Iterations 11
time step continuity errors : sum local = 8.6602e-11, global = -8.75275e-12, cumulative = 3.02782e-06
smoothSolver:  Solving for omega, Initial residual = 0.00151555, Final residual = 4.94728e-09, No Iterations 2
smoothSolver:  Solving for k, Initial residual = 0.0180614, Final residual = 3.28317e-08, No Iterations 2
ExecutionTime = 0.67 s  ClockTime = 0 s

Courant Number mean: 0.0143981 max: 0.494384
deltaT = 4.80407e-05
Time = 0.000760573

PIMPLE: iteration 1
smoothSolver:  Solving for Ux, Initial residual = 1.08085e-06, Final residual = 5.27544e-14, No Iterations 1
smoothSolver:  Solving for Uy, Initial residual = 9.03767e-07, Final residual = 9.03767e-07, No Iterations 0
smoothSolver:  Solving for Uz, Initial residual = 8.60039e-07, Final residual = 8.60039e-07, No Iterations 0
GAMG:  Solving for p, Initial residual = 0.999985, Final residual = 0.0389857, No Iterations 1
GAMG:  Solving for p, Initial residual = 0.046582, Final residual = 0.00198501, No Iterations 2
time step continuity errors : sum local = 2.73572e-06, global = 2.59389e-07, cumulative = 3.28721e-06
GAMG:  Solving for p, Initial residual = 0.999772, Final residual = 0.0389775, No Iterations 1
GAMG:  Solving for p, Initial residual = 0.0465768, Final residual = 5.6239e-07, No Iterations 11
time step continuity errors : sum local = 7.7509e-10, global = 7.08466e-11, cumulative = 3.28728e-06
PIMPLE: iteration 2
smoothSolver:  Solving for Ux, Initial residual = 0.0630367, Final residual = 4.46184e-08, No Iterations 2
smoothSolver:  Solving for Uy, Initial residual = 0.0481978, Final residual = 2.97313e-08, No Iterations 2
smoothSolver:  Solving for Uz, Initial residual = 0.0460463, Final residual = 3.08479e-08, No Iterations 2
GAMG:  Solving for p, Initial residual = 0.667749, Final residual = 0.0261506, No Iterations 1
GAMG:  Solving for p, Initial residual = 0.190235, Final residual = 0.00809415, No Iterations 2
time step continuity errors : sum local = 2.78679e-06, global = -2.64989e-07, cumulative = 3.02229e-06
GAMG:  Solving for p, Initial residual = 0.255768, Final residual = 0.0137121, No Iterations 1
GAMG:  Solving for p, Initial residual = 0.0411219, Final residual = 7.6718e-07, No Iterations 11
time step continuity errors : sum local = 8.37274e-11, global = -8.45947e-12, cumulative = 3.02228e-06
smoothSolver:  Solving for omega, Initial residual = 0.00146036, Final residual = 4.97918e-09, No Iterations 2
smoothSolver:  Solving for k, Initial residual = 0.0166691, Final residual = 3.13752e-08, No Iterations 2
ExecutionTime = 0.7 s  ClockTime = 0 s

Courant Number mean: 0.0145599 max: 0.495857
deltaT = 4.8442e-05
Time = 0.000809015

PIMPLE: iteration 1
smoothSolver:  Solving for Ux, Initial residual = 1.07825e-06, Final residual = 5.2392e-14, No Iterations 1
smoothSolver:  Solving for Uy, Initial residual = 8.98819e-07, Final residual = 8.98819e-07, No Iterations 0
smoothSolver:  Solving for Uz, Initial residual = 8.54983e-07, Final residual = 8.54983e-07, No Iterations 0
GAMG:  Solving for p, Initial residual = 0.999985, Final residual = 0.0388934, No Iterations 1
GAMG:  Solving for p, Initial residual = 0.0465395, Final residual = 0.0019603, No Iterations 2
time step continuity errors : sum local = 2.64696e-06, global = 2.50885e-07, cumulative = 3.27317e-06
GAMG:  Solving for p, Initial residual = 0.999773, Final residual = 0.0388852, No Iterations 1
GAMG:  Solving for p, Initial residual = 0.0465344, Final residual = 5.55269e-07, No Iterations 11
time step continuity errors : sum local = 7.49779e-10, global = 6.85393e-11, cumulative = 3.27323e-06
PIMPLE: iteration 2
smoothSolver:  Solving for Ux, Initial residual = 0.0612375, Final residual = 4.4209e-08, No Iterations 2
smoothSolver:  Solving for Uy, Initial residual = 0.0472963, Final residual = 2.96313e-08, No Iterations 2
smoothSolver:  Solving for Uz, Initial residual = 0.0451611, Final residual = 3.09925e-08, No Iterations 2
GAMG:  Solving for p, Initial residual = 0.672505, Final residual = 0.0262753, No Iterations 1
GAMG:  Solving for p, Initial residual = 0.193175, Final residual = 0.00812785, No Iterations 2
time step continuity errors : sum local = 2.69504e-06, global = -2.56257e-07, cumulative = 3.01698e-06
GAMG:  Solving for p, Initial residual = 0.256087, Final residual = 0.0137625, No Iterations 1
GAMG:  Solving for p, Initial residual = 0.0414358, Final residual = 7.73089e-07, No Iterations 11
time step continuity errors : sum local = 8.08731e-11, global = -8.16885e-12, cumulative = 3.01697e-06
smoothSolver:  Solving for omega, Initial residual = 0.00140404, Final residual = 4.94975e-09, No Iterations 2
smoothSolver:  Solving for k, Initial residual = 0.0154025, Final residual = 2.97805e-08, No Iterations 2
ExecutionTime = 0.73 s  ClockTime = 0 s

Courant Number mean: 0.0146798 max: 0.498669
deltaT = 4.85713e-05
Time = 0.000857586

PIMPLE: iteration 1
smoothSolver:  Solving for Ux, Initial residual = 1.06999e-06, Final residual = 5.14985e-14, No Iterations 1
smoothSolver:  Solving for Uy, Initial residual = 8.89847e-07, Final residual = 8.89847e-07, No Iterations 0
smoothSolver:  Solving for Uz, Initial residual = 8.46187e-07, Final residual = 8.46187e-07, No Iterations 0
GAMG:  Solving for p, Initial residual = 0.999985, Final residual = 0.0388075, No Iterations 1
GAMG:  Solving for p, Initial residual = 0.0465099, Final residual = 0.00462972, No Iterations 1
time step continuity errors : sum local = 6.09594e-06, global = 3.16696e-07, cumulative = 3.33366e-06
GAMG:  Solving for p, Initial residual = 0.999779, Final residual = 0.0387996, No Iterations 1
GAMG:  Solving for p, Initial residual = 0.046505, Final residual = 5.48708e-07, No Iterations 11
time step continuity errors : sum local = 7.22488e-10, global = 6.60567e-11, cumulative = 3.33373e-06
PIMPLE: iteration 2
smoothSolver:  Solving for Ux, Initial residual = 0.0595957, Final residual = 4.32964e-08, No Iterations 2
smoothSolver:  Solving for Uy, Initial residual = 0.0464531, Final residual = 2.91614e-08, No Iterations 2
smoothSolver:  Solving for Uz, Initial residual = 0.0443291, Final residual = 3.07279e-08, No Iterations 2
GAMG:  Solving for p, Initial residual = 0.676812, Final residual = 0.026389, No Iterations 1
GAMG:  Solving for p, Initial residual = 0.195942, Final residual = 0.0195715, No Iterations 1
time step continuity errors : sum local = 6.2283e-06, global = -3.13758e-07, cumulative = 3.01997e-06
GAMG:  Solving for p, Initial residual = 0.122695, Final residual = 0.00640401, No Iterations 2
GAMG:  Solving for p, Initial residual = 0.146188, Final residual = 8.91007e-07, No Iterations 11
time step continuity errors : sum local = 8.45002e-11, global = -9.51421e-12, cumulative = 3.01996e-06
smoothSolver:  Solving for omega, Initial residual = 0.00134345, Final residual = 4.82251e-09, No Iterations 2
smoothSolver:  Solving for k, Initial residual = 0.0142069, Final residual = 2.77149e-08, No Iterations 2
ExecutionTime = 0.77 s  ClockTime = 0 s

Courant Number mean: 0.0147176 max: 0.498475
deltaT = 4.87199e-05
Time = 0.000906306

PIMPLE: iteration 1
smoothSolver:  Solving for Ux, Initial residual = 1.06616e-06, Final residual = 5.0875e-14, No Iterations 1
smoothSolver:  Solving for Uy, Initial residual = 8.81888e-07, Final residual = 8.81888e-07, No Iterations 0
smoothSolver:  Solving for Uz, Initial residual = 8.39111e-07, Final residual = 8.39111e-07, No Iterations 0
GAMG:  Solving for p, Initial residual = 0.999985, Final residual = 0.0387171, No Iterations 1
GAMG:  Solving for p, Initial residual = 0.0464698, Final residual = 0.00456796, No Iterations 1
time step continuity errors : sum local = 5.86955e-06, global = 3.05986e-07, cumulative = 3.32595e-06
GAMG:  Solving for p, Initial residual = 0.999779, Final residual = 0.0387092, No Iterations 1
GAMG:  Solving for p, Initial residual = 0.0464649, Final residual = 5.4088e-07, No Iterations 11
time step continuity errors : sum local = 6.95001e-10, global = 6.3582e-11, cumulative = 3.32601e-06
PIMPLE: iteration 2
smoothSolver:  Solving for Ux, Initial residual = 0.0580032, Final residual = 4.23277e-08, No Iterations 2
smoothSolver:  Solving for Uy, Initial residual = 0.0456826, Final residual = 2.87824e-08, No Iterations 2
smoothSolver:  Solving for Uz, Initial residual = 0.0435679, Final residual = 3.05165e-08, No Iterations 2
GAMG:  Solving for p, Initial residual = 0.682032, Final residual = 0.0265268, No Iterations 1
GAMG:  Solving for p, Initial residual = 0.199451, Final residual = 0.0196514, No Iterations 1
time step continuity errors : sum local = 5.9953e-06, global = -3.02995e-07, cumulative = 3.02302e-06
GAMG:  Solving for p, Initial residual = 0.122114, Final residual = 0.00640682, No Iterations 2
GAMG:  Solving for p, Initial residual = 0.143935, Final residual = 8.75481e-07, No Iterations 11
time step continuity errors : sum local = 8.12933e-11, global = -9.15455e-12, cumulative = 3.02301e-06
smoothSolver:  Solving for omega, Initial residual = 0.0012872, Final residual = 4.71325e-09, No Iterations 2
smoothSolver:  Solving for k, Initial residual = 0.0131599, Final residual = 2.59832e-08, No Iterations 2
ExecutionTime = 0.8 s  ClockTime = 0 s

Courant Number mean: 0.0147612 max: 0.498475
deltaT = 4.88689e-05
Time = 0.000955175

PIMPLE: iteration 1
smoothSolver:  Solving for Ux, Initial residual = 1.05875e-06, Final residual = 5.01122e-14, No Iterations 1
smoothSolver:  Solving for Uy, Initial residual = 8.74695e-07, Final residual = 8.74695e-07, No Iterations 0
smoothSolver:  Solving for Uz, Initial residual = 8.31936e-07, Final residual = 8.31936e-07, No Iterations 0
GAMG:  Solving for p, Initial residual = 0.999985, Final residual = 0.0386341, No Iterations 1
GAMG:  Solving for p, Initial residual = 0.0464384, Final residual = 0.00451057, No Iterations 1
time step continuity errors : sum local = 5.66148e-06, global = 2.96223e-07, cumulative = 3.31923e-06
GAMG:  Solving for p, Initial residual = 0.999779, Final residual = 0.0386263, No Iterations 1
GAMG:  Solving for p, Initial residual = 0.0464335, Final residual = 5.33574e-07, No Iterations 11
time step continuity errors : sum local = 6.69726e-10, global = 6.13106e-11, cumulative = 3.31929e-06
PIMPLE: iteration 2
smoothSolver:  Solving for Ux, Initial residual = 0.0564984, Final residual = 4.15387e-08, No Iterations 2
smoothSolver:  Solving for Uy, Initial residual = 0.0449332, Final residual = 2.84602e-08, No Iterations 2
smoothSolver:  Solving for Uz, Initial residual = 0.0428295, Final residual = 3.03459e-08, No Iterations 2
GAMG:  Solving for p, Initial residual = 0.686467, Final residual = 0.0266457, No Iterations 1
GAMG:  Solving for p, Initial residual = 0.202507, Final residual = 0.0197292, No Iterations 1
time step continuity errors : sum local = 5.78129e-06, global = -2.92969e-07, cumulative = 3.02632e-06
GAMG:  Solving for p, Initial residual = 0.121706, Final residual = 0.00640876, No Iterations 2
GAMG:  Solving for p, Initial residual = 0.141671, Final residual = 8.60046e-07, No Iterations 11
time step continuity errors : sum local = 7.83035e-11, global = -8.81972e-12, cumulative = 3.02631e-06
smoothSolver:  Solving for omega, Initial residual = 0.0012346, Final residual = 4.6104e-09, No Iterations 2
smoothSolver:  Solving for k, Initial residual = 0.0122324, Final residual = 2.45106e-08, No Iterations 2
ExecutionTime = 0.83 s  ClockTime = 0 s

Courant Number mean: 0.0148051 max: 0.498493
deltaT = 4.90167e-05
Time = 0.00100419

PIMPLE: iteration 1
smoothSolver:  Solving for Ux, Initial residual = 1.05154e-06, Final residual = 4.93989e-14, No Iterations 1
smoothSolver:  Solving for Uy, Initial residual = 8.67963e-07, Final residual = 8.67963e-07, No Iterations 0
smoothSolver:  Solving for Uz, Initial residual = 8.25228e-07, Final residual = 8.25228e-07, No Iterations 0
GAMG:  Solving for p, Initial residual = 0.999985, Final residual = 0.0385596, No Iterations 1
GAMG:  Solving for p, Initial residual = 0.0464154, Final residual = 0.00445753, No Iterations 1
time step continuity errors : sum local = 5.47e-06, global = 2.87312e-07, cumulative = 3.31363e-06
GAMG:  Solving for p, Initial residual = 0.99978, Final residual = 0.0385518, No Iterations 1
GAMG:  Solving for p, Initial residual = 0.0464105, Final residual = 5.26745e-07, No Iterations 11
time step continuity errors : sum local = 6.46392e-10, global = 5.92192e-11, cumulative = 3.31369e-06
PIMPLE: iteration 2
smoothSolver:  Solving for Ux, Initial residual = 0.0551192, Final residual = 4.08316e-08, No Iterations 2
smoothSolver:  Solving for Uy, Initial residual = 0.0442482, Final residual = 2.81777e-08, No Iterations 2
smoothSolver:  Solving for Uz, Initial residual = 0.0421511, Final residual = 3.01996e-08, No Iterations 2
GAMG:  Solving for p, Initial residual = 0.690595, Final residual = 0.0267574, No Iterations 1
GAMG:  Solving for p, Initial residual = 0.205472, Final residual = 0.0198059, No Iterations 1
time step continuity errors : sum local = 5.58431e-06, global = -2.83811e-07, cumulative = 3.02987e-06
GAMG:  Solving for p, Initial residual = 0.121274, Final residual = 0.00640833, No Iterations 2
GAMG:  Solving for p, Initial residual = 0.139529, Final residual = 8.45434e-07, No Iterations 11
time step continuity errors : sum local = 7.55445e-11, global = -8.51081e-12, cumulative = 3.02987e-06
smoothSolver:  Solving for omega, Initial residual = 0.00118515, Final residual = 4.51338e-09, No Iterations 2
smoothSolver:  Solving for k, Initial residual = 0.011404, Final residual = 2.32162e-08, No Iterations 2
ExecutionTime = 0.86 s  ClockTime = 1 s

Courant Number mean: 0.0148486 max: 0.498554
deltaT = 4.91588e-05
Time = 0.00105335

PIMPLE: iteration 1
smoothSolver:  Solving for Ux, Initial residual = 1.04427e-06, Final residual = 4.87302e-14, No Iterations 1
smoothSolver:  Solving for Uy, Initial residual = 8.61544e-07, Final residual = 8.61544e-07, No Iterations 0
smoothSolver:  Solving for Uz, Initial residual = 8.18832e-07, Final residual = 8.18832e-07, No Iterations 0
GAMG:  Solving for p, Initial residual = 0.999985, Final residual = 0.0384923, No Iterations 1
GAMG:  Solving for p, Initial residual = 0.0464, Final residual = 0.0044087, No Iterations 1
time step continuity errors : sum local = 5.29279e-06, global = 2.79144e-07, cumulative = 3.30901e-06
GAMG:  Solving for p, Initial residual = 0.99978, Final residual = 0.0384845, No Iterations 1
GAMG:  Solving for p, Initial residual = 0.0463951, Final residual = 5.20378e-07, No Iterations 11
time step continuity errors : sum local = 6.24734e-10, global = 5.72834e-11, cumulative = 3.30907e-06
PIMPLE: iteration 2
smoothSolver:  Solving for Ux, Initial residual = 0.0538482, Final residual = 4.01835e-08, No Iterations 2
smoothSolver:  Solving for Uy, Initial residual = 0.0436193, Final residual = 2.79195e-08, No Iterations 2
smoothSolver:  Solving for Uz, Initial residual = 0.041526, Final residual = 3.00743e-08, No Iterations 2
GAMG:  Solving for p, Initial residual = 0.694451, Final residual = 0.0268627, No Iterations 1
GAMG:  Solving for p, Initial residual = 0.20837, Final residual = 0.019882, No Iterations 1
time step continuity errors : sum local = 5.40209e-06, global = -2.7539e-07, cumulative = 3.03368e-06
GAMG:  Solving for p, Initial residual = 0.120833, Final residual = 0.00640639, No Iterations 2
GAMG:  Solving for p, Initial residual = 0.137534, Final residual = 8.31815e-07, No Iterations 11
time step continuity errors : sum local = 7.29887e-11, global = -8.22471e-12, cumulative = 3.03367e-06
smoothSolver:  Solving for omega, Initial residual = 0.00113862, Final residual = 4.42124e-09, No Iterations 2
smoothSolver:  Solving for k, Initial residual = 0.0106598, Final residual = 2.20815e-08, No Iterations 2
ExecutionTime = 0.89 s  ClockTime = 1 s

Courant Number mean: 0.0148905 max: 0.498581
deltaT = 4.92987e-05
Time = 0.00110265

PIMPLE: iteration 1
smoothSolver:  Solving for Ux, Initial residual = 1.03699e-06, Final residual = 4.8096e-14, No Iterations 1
smoothSolver:  Solving for Uy, Initial residual = 8.55468e-07, Final residual = 8.55468e-07, No Iterations 0
smoothSolver:  Solving for Uz, Initial residual = 8.12771e-07, Final residual = 8.12771e-07, No Iterations 0
GAMG:  Solving for p, Initial residual = 0.999985, Final residual = 0.0384318, No Iterations 1
GAMG:  Solving for p, Initial residual = 0.0463944, Final residual = 0.0043636, No Iterations 1
time step continuity errors : sum local = 5.12858e-06, global = 2.71652e-07, cumulative = 3.30532e-06
GAMG:  Solving for p, Initial residual = 0.999781, Final residual = 0.0384241, No Iterations 1
GAMG:  Solving for p, Initial residual = 0.0463895, Final residual = 5.14431e-07, No Iterations 11
time step continuity errors : sum local = 6.0462e-10, global = 5.54909e-11, cumulative = 3.30538e-06
PIMPLE: iteration 2
smoothSolver:  Solving for Ux, Initial residual = 0.0526779, Final residual = 3.96107e-08, No Iterations 2
smoothSolver:  Solving for Uy, Initial residual = 0.0430404, Final residual = 2.77054e-08, No Iterations 2
smoothSolver:  Solving for Uz, Initial residual = 0.0409506, Final residual = 2.99733e-08, No Iterations 2
GAMG:  Solving for p, Initial residual = 0.698087, Final residual = 0.0269618, No Iterations 1
GAMG:  Solving for p, Initial residual = 0.211175, Final residual = 0.0199555, No Iterations 1
time step continuity errors : sum local = 5.23318e-06, global = -2.67695e-07, cumulative = 3.03768e-06
GAMG:  Solving for p, Initial residual = 0.120379, Final residual = 0.00640261, No Iterations 2
GAMG:  Solving for p, Initial residual = 0.135665, Final residual = 8.1905e-07, No Iterations 11
time step continuity errors : sum local = 7.06189e-11, global = -7.95961e-12, cumulative = 3.03767e-06
smoothSolver:  Solving for omega, Initial residual = 0.00109485, Final residual = 4.3316e-09, No Iterations 2
smoothSolver:  Solving for k, Initial residual = 0.00998969, Final residual = 2.10289e-08, No Iterations 2
ExecutionTime = 0.93 s  ClockTime = 1 s

Courant Number mean: 0.0149318 max: 0.498615
deltaT = 4.94356e-05
Time = 0.00115208

PIMPLE: iteration 1
smoothSolver:  Solving for Ux, Initial residual = 1.02971e-06, Final residual = 4.74824e-14, No Iterations 1
smoothSolver:  Solving for Uy, Initial residual = 8.49669e-07, Final residual = 8.49669e-07, No Iterations 0
smoothSolver:  Solving for Uz, Initial residual = 8.06996e-07, Final residual = 8.06996e-07, No Iterations 0
GAMG:  Solving for p, Initial residual = 0.999985, Final residual = 0.0383743, No Iterations 1
GAMG:  Solving for p, Initial residual = 0.0463962, Final residual = 0.00432187, No Iterations 1
time step continuity errors : sum local = 4.97616e-06, global = 2.64782e-07, cumulative = 3.30246e-06
GAMG:  Solving for p, Initial residual = 0.999781, Final residual = 0.0383665, No Iterations 1
GAMG:  Solving for p, Initial residual = 0.0463913, Final residual = 5.08843e-07, No Iterations 11
time step continuity errors : sum local = 5.85881e-10, global = 5.38266e-11, cumulative = 3.30251e-06
PIMPLE: iteration 2
smoothSolver:  Solving for Ux, Initial residual = 0.0515977, Final residual = 3.90937e-08, No Iterations 2
smoothSolver:  Solving for Uy, Initial residual = 0.0425078, Final residual = 2.75193e-08, No Iterations 2
smoothSolver:  Solving for Uz, Initial residual = 0.0404182, Final residual = 2.98938e-08, No Iterations 2
GAMG:  Solving for p, Initial residual = 0.701488, Final residual = 0.0270535, No Iterations 1
GAMG:  Solving for p, Initial residual = 0.213882, Final residual = 0.0200251, No Iterations 1
time step continuity errors : sum local = 5.07592e-06, global = -2.60587e-07, cumulative = 3.04192e-06
GAMG:  Solving for p, Initial residual = 0.119909, Final residual = 0.00639692, No Iterations 2
GAMG:  Solving for p, Initial residual = 0.133896, Final residual = 8.06989e-07, No Iterations 11
time step continuity errors : sum local = 6.84159e-11, global = -7.71323e-12, cumulative = 3.04191e-06
smoothSolver:  Solving for omega, Initial residual = 0.00105354, Final residual = 4.23618e-09, No Iterations 2
smoothSolver:  Solving for k, Initial residual = 0.00938201, Final residual = 2.00572e-08, No Iterations 2
ExecutionTime = 0.96 s  ClockTime = 1 s

Courant Number mean: 0.0149722 max: 0.498656
deltaT = 4.95688e-05
Time = 0.00120165

PIMPLE: iteration 1
smoothSolver:  Solving for Ux, Initial residual = 1.02241e-06, Final residual = 4.68668e-14, No Iterations 1
smoothSolver:  Solving for Uy, Initial residual = 8.44111e-07, Final residual = 8.44111e-07, No Iterations 0
smoothSolver:  Solving for Uz, Initial residual = 8.01439e-07, Final residual = 8.01439e-07, No Iterations 0
GAMG:  Solving for p, Initial residual = 0.999986, Final residual = 0.0383205, No Iterations 1
GAMG:  Solving for p, Initial residual = 0.0464035, Final residual = 0.00428338, No Iterations 1
time step continuity errors : sum local = 4.83425e-06, global = 2.58455e-07, cumulative = 3.30037e-06
GAMG:  Solving for p, Initial residual = 0.999781, Final residual = 0.0383128, No Iterations 1
GAMG:  Solving for p, Initial residual = 0.0463987, Final residual = 5.03606e-07, No Iterations 11
time step continuity errors : sum local = 5.68378e-10, global = 5.22769e-11, cumulative = 3.30042e-06
PIMPLE: iteration 2
smoothSolver:  Solving for Ux, Initial residual = 0.0506008, Final residual = 3.86283e-08, No Iterations 2
smoothSolver:  Solving for Uy, Initial residual = 0.0420176, Final residual = 2.73557e-08, No Iterations 2
smoothSolver:  Solving for Uz, Initial residual = 0.0399254, Final residual = 2.98413e-08, No Iterations 2
GAMG:  Solving for p, Initial residual = 0.704696, Final residual = 0.0271385, No Iterations 1
GAMG:  Solving for p, Initial residual = 0.216495, Final residual = 0.0200917, No Iterations 1
time step continuity errors : sum local = 4.92911e-06, global = -2.54052e-07, cumulative = 3.04637e-06
GAMG:  Solving for p, Initial residual = 0.119435, Final residual = 0.00638979, No Iterations 2
GAMG:  Solving for p, Initial residual = 0.132239, Final residual = 7.95681e-07, No Iterations 11
time step continuity errors : sum local = 6.636e-11, global = -7.48347e-12, cumulative = 3.04636e-06
smoothSolver:  Solving for omega, Initial residual = 0.00101451, Final residual = 4.14181e-09, No Iterations 2
smoothSolver:  Solving for k, Initial residual = 0.00882948, Final residual = 1.91708e-08, No Iterations 2
ExecutionTime = 0.99 s  ClockTime = 1 s

Courant Number mean: 0.0150115 max: 0.498698
deltaT = 4.96983e-05
Time = 0.00125135

PIMPLE: iteration 1
smoothSolver:  Solving for Ux, Initial residual = 1.01505e-06, Final residual = 4.62796e-14, No Iterations 1
smoothSolver:  Solving for Uy, Initial residual = 8.38786e-07, Final residual = 8.38786e-07, No Iterations 0
smoothSolver:  Solving for Uz, Initial residual = 7.96046e-07, Final residual = 7.96046e-07, No Iterations 0
GAMG:  Solving for p, Initial residual = 0.999986, Final residual = 0.03827, No Iterations 1
GAMG:  Solving for p, Initial residual = 0.0464147, Final residual = 0.00424754, No Iterations 1
time step continuity errors : sum local = 4.70151e-06, global = 2.52621e-07, cumulative = 3.29898e-06
GAMG:  Solving for p, Initial residual = 0.999782, Final residual = 0.0382623, No Iterations 1
GAMG:  Solving for p, Initial residual = 0.0464098, Final residual = 4.98684e-07, No Iterations 11
time step continuity errors : sum local = 5.51986e-10, global = 5.08303e-11, cumulative = 3.29903e-06
PIMPLE: iteration 2
smoothSolver:  Solving for Ux, Initial residual = 0.0496761, Final residual = 3.82075e-08, No Iterations 2
smoothSolver:  Solving for Uy, Initial residual = 0.0415672, Final residual = 2.72287e-08, No Iterations 2
smoothSolver:  Solving for Uz, Initial residual = 0.0394686, Final residual = 2.98064e-08, No Iterations 2
GAMG:  Solving for p, Initial residual = 0.707724, Final residual = 0.0272206, No Iterations 1
GAMG:  Solving for p, Initial residual = 0.219026, Final residual = 0.0201581, No Iterations 1
time step continuity errors : sum local = 4.79235e-06, global = -2.48032e-07, cumulative = 3.051e-06
GAMG:  Solving for p, Initial residual = 0.118962, Final residual = 0.00638192, No Iterations 2
GAMG:  Solving for p, Initial residual = 0.130719, Final residual = 7.8526e-07, No Iterations 11
time step continuity errors : sum local = 6.44404e-11, global = -7.26907e-12, cumulative = 3.05099e-06
smoothSolver:  Solving for omega, Initial residual = 0.000977583, Final residual = 4.04542e-09, No Iterations 2
smoothSolver:  Solving for k, Initial residual = 0.00832539, Final residual = 1.8358e-08, No Iterations 2
ExecutionTime = 1.02 s  ClockTime = 1 s

Courant Number mean: 0.0150498 max: 0.498738
deltaT = 4.9824e-05
Time = 0.00130118

PIMPLE: iteration 1
smoothSolver:  Solving for Ux, Initial residual = 1.00767e-06, Final residual = 4.56936e-14, No Iterations 1
smoothSolver:  Solving for Uy, Initial residual = 8.33638e-07, Final residual = 8.33638e-07, No Iterations 0
smoothSolver:  Solving for Uz, Initial residual = 7.90826e-07, Final residual = 7.90826e-07, No Iterations 0
GAMG:  Solving for p, Initial residual = 0.999986, Final residual = 0.0382224, No Iterations 1
GAMG:  Solving for p, Initial residual = 0.0464326, Final residual = 0.00421443, No Iterations 1
time step continuity errors : sum local = 4.5774e-06, global = 2.47245e-07, cumulative = 3.29824e-06
GAMG:  Solving for p, Initial residual = 0.999782, Final residual = 0.0382147, No Iterations 1
GAMG:  Solving for p, Initial residual = 0.0464277, Final residual = 4.94055e-07, No Iterations 11
[...]
smoothSolver:  Solving for omega, Initial residual = 1.90341e-05, Final residual = 2.04152e-08, No Iterations 1
smoothSolver:  Solving for k, Initial residual = 0.000166111, Final residual = 1.74021e-07, No Iterations 1
ExecutionTime = 53.31 s  ClockTime = 52 s

Courant Number mean: 0.0200973 max: 0.499974
deltaT = 6.66981e-05
Time = 0.0996834

PIMPLE: iteration 1
smoothSolver:  Solving for Ux, Initial residual = 8.59661e-09, Final residual = 8.59661e-09, No Iterations 0
smoothSolver:  Solving for Uy, Initial residual = 3.09231e-08, Final residual = 3.09231e-08, No Iterations 0
smoothSolver:  Solving for Uz, Initial residual = 2.30948e-08, Final residual = 2.30948e-08, No Iterations 0
GAMG:  Solving for p, Initial residual = 0.999979, Final residual = 0.0447507, No Iterations 1
GAMG:  Solving for p, Initial residual = 0.0544906, Final residual = 0.00200326, No Iterations 2
time step continuity errors : sum local = 2.16142e-07, global = -1.01717e-08, cumulative = 3.47401e-06
GAMG:  Solving for p, Initial residual = 0.999777, Final residual = 0.0447417, No Iterations 1
GAMG:  Solving for p, Initial residual = 0.0544851, Final residual = 6.06454e-07, No Iterations 11
time step continuity errors : sum local = 6.54336e-11, global = -6.2601e-12, cumulative = 3.474e-06
PIMPLE: iteration 2
smoothSolver:  Solving for Ux, Initial residual = 0.00162481, Final residual = 9.58406e-09, No Iterations 2
smoothSolver:  Solving for Uy, Initial residual = 0.0103212, Final residual = 5.0829e-08, No Iterations 2
smoothSolver:  Solving for Uz, Initial residual = 0.00706814, Final residual = 4.22902e-08, No Iterations 2
GAMG:  Solving for p, Initial residual = 0.72214, Final residual = 0.0326693, No Iterations 1
GAMG:  Solving for p, Initial residual = 0.271735, Final residual = 0.0101834, No Iterations 2
time step continuity errors : sum local = 2.20984e-07, global = 1.05826e-08, cumulative = 3.48458e-06
GAMG:  Solving for p, Initial residual = 0.116189, Final residual = 0.00850521, No Iterations 1
GAMG:  Solving for p, Initial residual = 0.023687, Final residual = 5.61723e-07, No Iterations 11
time step continuity errors : sum local = 7.85628e-12, global = 7.92772e-13, cumulative = 3.48458e-06
smoothSolver:  Solving for omega, Initial residual = 1.90224e-05, Final residual = 2.04067e-08, No Iterations 1
smoothSolver:  Solving for k, Initial residual = 0.00016603, Final residual = 1.73842e-07, No Iterations 1
ExecutionTime = 53.33 s  ClockTime = 52 s

Courant Number mean: 0.0200983 max: 0.499974
deltaT = 6.67015e-05
Time = 0.0997501

PIMPLE: iteration 1
smoothSolver:  Solving for Ux, Initial residual = 8.59343e-09, Final residual = 8.59343e-09, No Iterations 0
smoothSolver:  Solving for Uy, Initial residual = 3.09101e-08, Final residual = 3.09101e-08, No Iterations 0
smoothSolver:  Solving for Uz, Initial residual = 2.30862e-08, Final residual = 2.30862e-08, No Iterations 0
GAMG:  Solving for p, Initial residual = 0.999979, Final residual = 0.0447505, No Iterations 1
GAMG:  Solving for p, Initial residual = 0.0544927, Final residual = 0.00200324, No Iterations 2
time step continuity errors : sum local = 2.16163e-07, global = -1.01763e-08, cumulative = 3.47441e-06
GAMG:  Solving for p, Initial residual = 0.999777, Final residual = 0.0447415, No Iterations 1
GAMG:  Solving for p, Initial residual = 0.0544872, Final residual = 6.06404e-07, No Iterations 11
time step continuity errors : sum local = 6.54354e-11, global = -6.26049e-12, cumulative = 3.4744e-06
PIMPLE: iteration 2
smoothSolver:  Solving for Ux, Initial residual = 0.00162472, Final residual = 9.58239e-09, No Iterations 2
smoothSolver:  Solving for Uy, Initial residual = 0.0103206, Final residual = 5.08174e-08, No Iterations 2
smoothSolver:  Solving for Uz, Initial residual = 0.00706836, Final residual = 4.2289e-08, No Iterations 2
GAMG:  Solving for p, Initial residual = 0.722137, Final residual = 0.0326691, No Iterations 1
GAMG:  Solving for p, Initial residual = 0.271738, Final residual = 0.010183, No Iterations 2
time step continuity errors : sum local = 2.21006e-07, global = 1.05874e-08, cumulative = 3.48499e-06
GAMG:  Solving for p, Initial residual = 0.116193, Final residual = 0.00850524, No Iterations 1
GAMG:  Solving for p, Initial residual = 0.0236885, Final residual = 5.61728e-07, No Iterations 11
time step continuity errors : sum local = 7.85699e-12, global = 7.92847e-13, cumulative = 3.48499e-06
smoothSolver:  Solving for omega, Initial residual = 1.90107e-05, Final residual = 2.03985e-08, No Iterations 1
smoothSolver:  Solving for k, Initial residual = 0.000165949, Final residual = 1.73658e-07, No Iterations 1
ExecutionTime = 53.37 s  ClockTime = 53 s

Courant Number mean: 0.0200993 max: 0.499974
deltaT = 6.6705e-05
Time = 0.0998168

PIMPLE: iteration 1
smoothSolver:  Solving for Ux, Initial residual = 8.58978e-09, Final residual = 8.58978e-09, No Iterations 0
smoothSolver:  Solving for Uy, Initial residual = 3.08951e-08, Final residual = 3.08951e-08, No Iterations 0
smoothSolver:  Solving for Uz, Initial residual = 2.30786e-08, Final residual = 2.30786e-08, No Iterations 0
GAMG:  Solving for p, Initial residual = 0.999979, Final residual = 0.0447503, No Iterations 1
GAMG:  Solving for p, Initial residual = 0.0544945, Final residual = 0.00200321, No Iterations 2
time step continuity errors : sum local = 2.16184e-07, global = -1.01807e-08, cumulative = 3.47481e-06
GAMG:  Solving for p, Initial residual = 0.999777, Final residual = 0.0447413, No Iterations 1
GAMG:  Solving for p, Initial residual = 0.054489, Final residual = 6.06351e-07, No Iterations 11
time step continuity errors : sum local = 6.54368e-11, global = -6.26085e-12, cumulative = 3.4748e-06
PIMPLE: iteration 2
smoothSolver:  Solving for Ux, Initial residual = 0.00162463, Final residual = 9.58069e-09, No Iterations 2
smoothSolver:  Solving for Uy, Initial residual = 0.01032, Final residual = 5.08055e-08, No Iterations 2
smoothSolver:  Solving for Uz, Initial residual = 0.00706857, Final residual = 4.22873e-08, No Iterations 2
GAMG:  Solving for p, Initial residual = 0.72213, Final residual = 0.0326687, No Iterations 1
GAMG:  Solving for p, Initial residual = 0.271737, Final residual = 0.0101825, No Iterations 2
time step continuity errors : sum local = 2.21027e-07, global = 1.0592e-08, cumulative = 3.48539e-06
GAMG:  Solving for p, Initial residual = 0.116195, Final residual = 0.0085051, No Iterations 1
GAMG:  Solving for p, Initial residual = 0.0236895, Final residual = 5.61717e-07, No Iterations 11
time step continuity errors : sum local = 7.85765e-12, global = 7.92916e-13, cumulative = 3.48539e-06
smoothSolver:  Solving for omega, Initial residual = 1.89989e-05, Final residual = 2.03904e-08, No Iterations 1
smoothSolver:  Solving for k, Initial residual = 0.000165868, Final residual = 1.73469e-07, No Iterations 1
ExecutionTime = 53.4 s  ClockTime = 53 s

Courant Number mean: 0.0201003 max: 0.499974
deltaT = 6.67084e-05
Time = 0.0998836

PIMPLE: iteration 1
smoothSolver:  Solving for Ux, Initial residual = 8.58681e-09, Final residual = 8.58681e-09, No Iterations 0
smoothSolver:  Solving for Uy, Initial residual = 3.08826e-08, Final residual = 3.08826e-08, No Iterations 0
smoothSolver:  Solving for Uz, Initial residual = 2.307e-08, Final residual = 2.307e-08, No Iterations 0
GAMG:  Solving for p, Initial residual = 0.999979, Final residual = 0.04475, No Iterations 1
GAMG:  Solving for p, Initial residual = 0.0544963, Final residual = 0.00200317, No Iterations 2
time step continuity errors : sum local = 2.16204e-07, global = -1.01851e-08, cumulative = 3.47521e-06
GAMG:  Solving for p, Initial residual = 0.999777, Final residual = 0.044741, No Iterations 1
GAMG:  Solving for p, Initial residual = 0.0544908, Final residual = 6.06293e-07, No Iterations 11
time step continuity errors : sum local = 6.5438e-11, global = -6.26118e-12, cumulative = 3.4752e-06
PIMPLE: iteration 2
smoothSolver:  Solving for Ux, Initial residual = 0.00162453, Final residual = 9.57901e-09, No Iterations 2
smoothSolver:  Solving for Uy, Initial residual = 0.0103194, Final residual = 5.07938e-08, No Iterations 2
smoothSolver:  Solving for Uz, Initial residual = 0.00706878, Final residual = 4.22859e-08, No Iterations 2
GAMG:  Solving for p, Initial residual = 0.72212, Final residual = 0.0326681, No Iterations 1
GAMG:  Solving for p, Initial residual = 0.271732, Final residual = 0.0101818, No Iterations 2
time step continuity errors : sum local = 2.21046e-07, global = 1.05964e-08, cumulative = 3.4858e-06
GAMG:  Solving for p, Initial residual = 0.116194, Final residual = 0.00850474, No Iterations 1
GAMG:  Solving for p, Initial residual = 0.0236896, Final residual = 5.61691e-07, No Iterations 11
time step continuity errors : sum local = 7.85824e-12, global = 7.92978e-13, cumulative = 3.4858e-06
smoothSolver:  Solving for omega, Initial residual = 1.89872e-05, Final residual = 2.03823e-08, No Iterations 1
smoothSolver:  Solving for k, Initial residual = 0.000165787, Final residual = 1.73279e-07, No Iterations 1
ExecutionTime = 53.43 s  ClockTime = 53 s

Courant Number mean: 0.0201013 max: 0.499974
deltaT = 6.67119e-05
Time = 0.0999503

PIMPLE: iteration 1
smoothSolver:  Solving for Ux, Initial residual = 8.58469e-09, Final residual = 8.58469e-09, No Iterations 0
smoothSolver:  Solving for Uy, Initial residual = 3.08726e-08, Final residual = 3.08726e-08, No Iterations 0
smoothSolver:  Solving for Uz, Initial residual = 2.30611e-08, Final residual = 2.30611e-08, No Iterations 0
GAMG:  Solving for p, Initial residual = 0.999979, Final residual = 0.0447497, No Iterations 1
GAMG:  Solving for p, Initial residual = 0.0544981, Final residual = 0.00200311, No Iterations 2
time step continuity errors : sum local = 2.16222e-07, global = -1.01892e-08, cumulative = 3.47561e-06
GAMG:  Solving for p, Initial residual = 0.999777, Final residual = 0.0447407, No Iterations 1
GAMG:  Solving for p, Initial residual = 0.0544926, Final residual = 6.06228e-07, No Iterations 11
time step continuity errors : sum local = 6.54382e-11, global = -6.26142e-12, cumulative = 3.4756e-06
PIMPLE: iteration 2
smoothSolver:  Solving for Ux, Initial residual = 0.00162444, Final residual = 9.57733e-09, No Iterations 2
smoothSolver:  Solving for Uy, Initial residual = 0.0103188, Final residual = 5.07822e-08, No Iterations 2
smoothSolver:  Solving for Uz, Initial residual = 0.00706899, Final residual = 4.22845e-08, No Iterations 2
GAMG:  Solving for p, Initial residual = 0.722124, Final residual = 0.0326681, No Iterations 1
GAMG:  Solving for p, Initial residual = 0.271741, Final residual = 0.0101817, No Iterations 2
time step continuity errors : sum local = 2.2107e-07, global = 1.06012e-08, cumulative = 3.48621e-06
GAMG:  Solving for p, Initial residual = 0.116204, Final residual = 0.00850523, No Iterations 1
GAMG:  Solving for p, Initial residual = 0.0236923, Final residual = 5.61725e-07, No Iterations 11
time step continuity errors : sum local = 7.859e-12, global = 7.93061e-13, cumulative = 3.48621e-06
smoothSolver:  Solving for omega, Initial residual = 1.89753e-05, Final residual = 2.03741e-08, No Iterations 1
smoothSolver:  Solving for k, Initial residual = 0.000165704, Final residual = 1.7309e-07, No Iterations 1
ExecutionTime = 53.46 s  ClockTime = 53 s

Courant Number mean: 0.0201023 max: 0.499974
deltaT = 6.67153e-05
Time = 0.100017

PIMPLE: iteration 1
smoothSolver:  Solving for Ux, Initial residual = 8.57912e-09, Final residual = 8.57912e-09, No Iterations 0
smoothSolver:  Solving for Uy, Initial residual = 3.08487e-08, Final residual = 3.08487e-08, No Iterations 0
smoothSolver:  Solving for Uz, Initial residual = 2.30541e-08, Final residual = 2.30541e-08, No Iterations 0
GAMG:  Solving for p, Initial residual = 0.999979, Final residual = 0.0447494, No Iterations 1
GAMG:  Solving for p, Initial residual = 0.0544995, Final residual = 0.00200309, No Iterations 2
time step continuity errors : sum local = 2.16244e-07, global = -1.01935e-08, cumulative = 3.47601e-06
GAMG:  Solving for p, Initial residual = 0.999777, Final residual = 0.0447404, No Iterations 1
GAMG:  Solving for p, Initial residual = 0.054494, Final residual = 6.0618e-07, No Iterations 11
time step continuity errors : sum local = 6.54405e-11, global = -6.26185e-12, cumulative = 3.47601e-06
PIMPLE: iteration 2
smoothSolver:  Solving for Ux, Initial residual = 0.00162435, Final residual = 9.57563e-09, No Iterations 2
smoothSolver:  Solving for Uy, Initial residual = 0.0103182, Final residual = 5.07706e-08, No Iterations 2
smoothSolver:  Solving for Uz, Initial residual = 0.00706916, Final residual = 4.22828e-08, No Iterations 2
GAMG:  Solving for p, Initial residual = 0.722116, Final residual = 0.0326676, No Iterations 1
GAMG:  Solving for p, Initial residual = 0.27174, Final residual = 0.0101813, No Iterations 2
time step continuity errors : sum local = 2.21091e-07, global = 1.06055e-08, cumulative = 3.48661e-06
GAMG:  Solving for p, Initial residual = 0.116207, Final residual = 0.00850514, No Iterations 1
GAMG:  Solving for p, Initial residual = 0.0236932, Final residual = 5.61717e-07, No Iterations 11
time step continuity errors : sum local = 7.85963e-12, global = 7.93128e-13, cumulative = 3.48661e-06
smoothSolver:  Solving for omega, Initial residual = 1.89636e-05, Final residual = 2.03658e-08, No Iterations 1
smoothSolver:  Solving for k, Initial residual = 0.000165621, Final residual = 1.72899e-07, No Iterations 1
ExecutionTime = 53.5 s  ClockTime = 53 s

End

Finalising parallel run
[SOLVER] completed (exit code: 0)
[SOLVER] Reconstructing parallel results...
[RECONSTRUCT] Running: reconstructPar
/*---------------------------------------------------------------------------*\
| =========                 |                                                 |
| \\      /  F ield         | OpenFOAM: The Open Source CFD Toolbox           |
|  \\    /   O peration     | Version:  2506                                  |
|   \\  /    A nd           | Website:  www.openfoam.com                      |
|    \\/     M anipulation  |                                                 |
\*---------------------------------------------------------------------------*/
Build  : _615aae61-20250627 OPENFOAM=2506 version=2506
Arch   : "LSB;label=32;scalar=64"
Exec   : reconstructPar
Date   : Jan 24 2026
Time   : 18:35:03
Host   : Vortex-Eclipse
PID    : 237785
I/O    : uncollated
Case   : /home/reen/openfoam/Tutorials/Rotating_Setup_Case/OpenFOAM_GUI/WindTunnelGUI/runs/Run_1_20260124_183403/windTunnelCase
nProcs : 1
trapFpe: Floating point exception trapping enabled (FOAM_SIGFPE).
fileModificationChecking : Monitoring run-time modified files using timeStampMaster (fileModificationSkew 5, maxFileModificationPolls 20)
allowSystemOperations : Allowing user-supplied system call operations

// * * * * * * * * * * * * * * * * * * * * * * * * * * * * * * * * * * * * * //
Create time



Reconstructing fields
region=region0

Time = 0.00481636

Reconstructing FV fields

    Reconstructing volScalarFields

        k
        nut
        omega
        p

    Reconstructing volVectorFields

        U

    Reconstructing surfaceScalarFields

        phi

Reconstructing point fields

No point fields

No lagrangian fields

No FA fields

Time = 0.0100394

Reconstructing FV fields

    Reconstructing volScalarFields

        k
        nut
        omega
        p

    Reconstructing volVectorFields

        U

    Reconstructing surfaceScalarFields

        phi

Reconstructing point fields

No point fields

No lagrangian fields

No FA fields

Time = 0.0153608

Reconstructing FV fields

    Reconstructing volScalarFields

        k
        nut
        omega
        p

    Reconstructing volVectorFields

        U

    Reconstructing surfaceScalarFields

        phi

Reconstructing point fields

No point fields

No lagrangian fields

No FA fields

Time = 0.0208056

Reconstructing FV fields

    Reconstructing volScalarFields

        k
        nut
        omega
        p

    Reconstructing volVectorFields

        U

    Reconstructing surfaceScalarFields

        phi

Reconstructing point fields

No point fields

No lagrangian fields

No FA fields

Time = 0.0263899

Reconstructing FV fields

    Reconstructing volScalarFields

        k
        nut
        omega
        p

    Reconstructing volVectorFields

        U

    Reconstructing surfaceScalarFields

        phi

Reconstructing point fields

No point fields

No lagrangian fields

No FA fields

Time = 0.0321486

Reconstructing FV fields

    Reconstructing volScalarFields

        k
        nut
        omega
        p

    Reconstructing volVectorFields

        U

    Reconstructing surfaceScalarFields

        phi

Reconstructing point fields

No point fields

No lagrangian fields

No FA fields

Time = 0.0380899

Reconstructing FV fields

    Reconstructing volScalarFields

        k
        nut
        omega
        p

    Reconstructing volVectorFields

        U

    Reconstructing surfaceScalarFields

        phi

Reconstructing point fields

No point fields

No lagrangian fields

No FA fields

Time = 0.0441176

Reconstructing FV fields

    Reconstructing volScalarFields

        k
        nut
        omega
        p

    Reconstructing volVectorFields

        U

    Reconstructing surfaceScalarFields

        phi

Reconstructing point fields

No point fields

No lagrangian fields

No FA fields

Time = 0.0502167

Reconstructing FV fields

    Reconstructing volScalarFields

        k
        nut
        omega
        p

    Reconstructing volVectorFields

        U

    Reconstructing surfaceScalarFields

        phi

Reconstructing point fields

No point fields

No lagrangian fields

No FA fields

Time = 0.0563878

Reconstructing FV fields

    Reconstructing volScalarFields

        k
        nut
        omega
        p

    Reconstructing volVectorFields

        U

    Reconstructing surfaceScalarFields

        phi

Reconstructing point fields

No point fields

No lagrangian fields

No FA fields

Time = 0.062634

Reconstructing FV fields

    Reconstructing volScalarFields

        k
        nut
        omega
        p

    Reconstructing volVectorFields

        U

    Reconstructing surfaceScalarFields

        phi

Reconstructing point fields

No point fields

No lagrangian fields

No FA fields

Time = 0.0689518

Reconstructing FV fields

    Reconstructing volScalarFields

        k
        nut
        omega
        p

    Reconstructing volVectorFields

        U

    Reconstructing surfaceScalarFields

        phi

Reconstructing point fields

No point fields

No lagrangian fields

No FA fields

Time = 0.0753367

Reconstructing FV fields

    Reconstructing volScalarFields

        k
        nut
        omega
        p

    Reconstructing volVectorFields

        U

    Reconstructing surfaceScalarFields

        phi

Reconstructing point fields

No point fields

No lagrangian fields

No FA fields

Time = 0.0817954

Reconstructing FV fields

    Reconstructing volScalarFields

        k
        nut
        omega
        p

    Reconstructing volVectorFields

        U

    Reconstructing surfaceScalarFields

        phi

Reconstructing point fields

No point fields

No lagrangian fields

No FA fields

Time = 0.0883398

Reconstructing FV fields

    Reconstructing volScalarFields

        k
        nut
        omega
        p

    Reconstructing volVectorFields

        U

    Reconstructing surfaceScalarFields

        phi

Reconstructing point fields

No point fields

No lagrangian fields

No FA fields

Time = 0.094957

Reconstructing FV fields

    Reconstructing volScalarFields

        k
        nut
        omega
        p

    Reconstructing volVectorFields

        U

    Reconstructing surfaceScalarFields

        phi

Reconstructing point fields

No point fields

No lagrangian fields

No FA fields


End

[RECONSTRUCT] completed (exit code: 0)
